api/pglib_opf_case5658_epigrids__api.m
%%%%%%%%%%%%%%%%%%%%%%%%%%%%%%%%%%%%%%%%%%%%%%%%%%%%%%%%%%%%%%%%%%%%%%%%%%%
%%%%                                                                  %%%%%
%%%%    IEEE PES Power Grid Library - Optimal Power Flow - v23.07     %%%%%
%%%%          (https://github.com/power-grid-lib/pglib-opf)           %%%%%
%%%%             Benchmark Group - Active Power Increase              %%%%%
%%%%                         23 - July - 2023                         %%%%%
%%%%                                                                  %%%%%
%%%%%%%%%%%%%%%%%%%%%%%%%%%%%%%%%%%%%%%%%%%%%%%%%%%%%%%%%%%%%%%%%%%%%%%%%%%
function mpc = pglib_opf_case5658_epigrids__api
mpc.version = '2';
mpc.baseMVA = 100.0;

%% bus data
%	bus_i	type	Pd	Qd	Gs	Bs	area	Vm	Va	baseKV	zone	Vmax	Vmin
mpc.bus = [
	27810	 2	 0.0	 0.0	 0.0	 0.0	 6	    1.00000	    0.00000	 500.0	 1	    1.10000	    0.90000;
	27811	 2	 0.0	 0.0	 0.0	 0.0	 6	    1.00000	    0.00000	 500.0	 1	    1.10000	    0.90000;
	27812	 2	 0.0	 0.0	 0.0	 0.0	 6	    1.00000	    0.00000	 500.0	 1	    1.10000	    0.90000;
	27813	 2	 0.0	 0.0	 0.0	 0.0	 6	    1.00000	    0.00000	 230.0	 1	    1.10000	    0.90000;
	27814	 2	 0.0	 0.0	 0.0	 0.0	 6	    1.00000	    0.00000	 500.0	 1	    1.10000	    0.90000;
	27815	 2	 0.0	 0.0	 0.0	 0.0	 6	    1.00000	    0.00000	 500.0	 1	    1.10000	    0.90000;
	27816	 2	 0.0	 0.0	 0.0	 0.0	 6	    1.00000	    0.00000	 500.0	 1	    1.10000	    0.90000;
	27817	 2	 0.0	 0.0	 0.0	 0.0	 6	    1.00000	    0.00000	 230.0	 1	    1.10000	    0.90000;
	27818	 1	 0.0	 0.0	 0.0	 0.0	 6	    1.00000	    0.00000	 500.0	 1	    1.10000	    0.90000;
	27819	 2	 0.0	 0.0	 0.0	 0.0	 6	    1.00000	    0.00000	 230.0	 1	    1.10000	    0.90000;
	27820	 2	 0.0	 0.0	 0.0	 0.0	 6	    1.00000	    0.00000	 230.0	 1	    1.10000	    0.90000;
	27821	 2	 0.0	 0.0	 0.0	 0.0	 6	    1.00000	    0.00000	 500.0	 1	    1.10000	    0.90000;
	27822	 2	 0.0	 0.0	 0.0	 0.0	 6	    1.00000	    0.00000	 500.0	 1	    1.10000	    0.90000;
	27823	 2	 0.0	 0.0	 0.0	 0.0	 6	    1.00000	    0.00000	 138.0	 1	    1.10000	    0.90000;
	27824	 2	 0.0	 0.0	 0.0	 0.0	 6	    1.00000	    0.00000	 138.0	 1	    1.10000	    0.90000;
	27825	 2	 0.0	 0.0	 0.0	 0.0	 6	    1.00000	    0.00000	 230.0	 1	    1.10000	    0.90000;
	27826	 2	 0.0	 0.0	 0.0	 0.0	 6	    1.00000	    0.00000	 230.0	 1	    1.10000	    0.90000;
	27827	 2	 0.0	 0.0	 0.0	 0.0	 6	    1.00000	    0.00000	 230.0	 1	    1.10000	    0.90000;
	27828	 2	 0.0	 0.0	 0.0	 0.0	 6	    1.00000	    0.00000	 138.0	 1	    1.10000	    0.90000;
	27829	 2	 0.0	 0.0	 0.0	 0.0	 6	    1.00000	    0.00000	 138.0	 1	    1.10000	    0.90000;
	27830	 2	 0.0	 0.0	 0.0	 0.0	 6	    1.00000	    0.00000	 500.0	 1	    1.10000	    0.90000;
	27831	 2	 0.0	 0.0	 0.0	 0.0	 6	    1.00000	    0.00000	 500.0	 1	    1.10000	    0.90000;
	27832	 2	 0.0	 0.0	 0.0	 0.0	 6	    1.00000	    0.00000	 230.0	 1	    1.10000	    0.90000;
	27833	 2	 0.0	 0.0	 0.0	 0.0	 6	    1.00000	    0.00000	 138.0	 1	    1.10000	    0.90000;
	27834	 2	 0.0	 0.0	 0.0	 0.0	 6	    1.00000	    0.00000	 500.0	 1	    1.10000	    0.90000;
	27835	 2	 0.0	 0.0	 0.0	 0.0	 6	    1.00000	    0.00000	 230.0	 1	    1.10000	    0.90000;
	27836	 2	 0.0	 0.0	 0.0	 0.0	 6	    1.00000	    0.00000	 500.0	 1	    1.10000	    0.90000;
	27837	 2	 0.0	 0.0	 0.0	 0.0	 6	    1.00000	    0.00000	 500.0	 1	    1.10000	    0.90000;
	27838	 2	 0.0	 0.0	 0.0	 0.0	 6	    1.00000	    0.00000	 500.0	 1	    1.10000	    0.90000;
	27839	 2	 0.0	 0.0	 0.0	 0.0	 6	    1.00000	    0.00000	 500.0	 1	    1.10000	    0.90000;
	27840	 3	 0.0	 0.0	 0.0	 0.0	 6	    1.00000	    0.00000	 500.0	 1	    1.10000	    0.90000;
	27841	 2	 0.0	 0.0	 0.0	 0.0	 6	    1.00000	    0.00000	 500.0	 1	    1.10000	    0.90000;
	27842	 2	 0.0	 0.0	 0.0	 0.0	 6	    1.00000	    0.00000	 500.0	 1	    1.10000	    0.90000;
	27843	 2	 0.0	 0.0	 0.0	 0.0	 6	    1.00000	    0.00000	 230.0	 1	    1.10000	    0.90000;
	27844	 2	 0.0	 0.0	 0.0	 0.0	 6	    1.00000	    0.00000	 230.0	 1	    1.10000	    0.90000;
	27845	 2	 0.0	 0.0	 0.0	 0.0	 6	    1.00000	    0.00000	 500.0	 1	    1.10000	    0.90000;
	27846	 2	 0.0	 0.0	 0.0	 0.0	 6	    1.00000	    0.00000	 138.0	 1	    1.10000	    0.90000;
	27847	 2	 0.0	 0.0	 0.0	 0.0	 6	    1.00000	    0.00000	 230.0	 1	    1.10000	    0.90000;
	27848	 2	 0.0	 0.0	 0.0	 0.0	 6	    1.00000	    0.00000	 500.0	 1	    1.10000	    0.90000;
	27849	 2	 0.0	 0.0	 0.0	 0.0	 6	    1.00000	    0.00000	 230.0	 1	    1.10000	    0.90000;
	27850	 2	 0.0	 0.0	 0.0	 0.0	 6	    1.00000	    0.00000	 230.0	 1	    1.10000	    0.90000;
	27851	 2	 0.0	 0.0	 0.0	 0.0	 6	    1.00000	    0.00000	 138.0	 1	    1.10000	    0.90000;
	27852	 2	 0.0	 0.0	 0.0	 0.0	 6	    1.00000	    0.00000	 138.0	 1	    1.10000	    0.90000;
	27853	 2	 0.0	 0.0	 0.0	 0.0	 6	    1.00000	    0.00000	 138.0	 1	    1.10000	    0.90000;
	27854	 2	 0.0	 0.0	 0.0	 0.0	 6	    1.00000	    0.00000	 230.0	 1	    1.10000	    0.90000;
	27855	 2	 0.0	 0.0	 0.0	 0.0	 6	    1.00000	    0.00000	 500.0	 1	    1.10000	    0.90000;
	27856	 2	 0.0	 0.0	 0.0	 0.0	 6	    1.00000	    0.00000	 500.0	 1	    1.10000	    0.90000;
	27857	 2	 0.0	 0.0	 0.0	 0.0	 6	    1.00000	    0.00000	 230.0	 1	    1.10000	    0.90000;
	27858	 1	 0.0	 0.0	 0.0	 0.0	 6	    1.00000	    0.00000	 138.0	 1	    1.10000	    0.90000;
	27859	 1	 0.0	 0.0	 0.0	 0.0	 6	    1.00000	    0.00000	 500.0	 1	    1.10000	    0.90000;
	27860	 2	 0.0	 0.0	 0.0	 0.0	 6	    1.00000	    0.00000	 230.0	 1	    1.10000	    0.90000;
	27861	 2	 0.0	 0.0	 0.0	 0.0	 6	    1.00000	    0.00000	 138.0	 1	    1.10000	    0.90000;
	27862	 1	 0.0	 0.0	 0.0	 0.0	 6	    1.00000	    0.00000	 500.0	 1	    1.10000	    0.90000;
	27863	 2	 0.0	 0.0	 0.0	 0.0	 6	    1.00000	    0.00000	 500.0	 1	    1.10000	    0.90000;
	27864	 2	 0.0	 0.0	 0.0	 0.0	 6	    1.00000	    0.00000	 138.0	 1	    1.10000	    0.90000;
	27865	 1	 0.0	 0.0	 0.0	 0.0	 6	    1.00000	    0.00000	 230.0	 1	    1.10000	    0.90000;
	27866	 2	 0.0	 0.0	 0.0	 0.0	 6	    1.00000	    0.00000	 138.0	 1	    1.10000	    0.90000;
	27867	 1	 0.0	 0.0	 0.0	 0.0	 6	    1.00000	    0.00000	 230.0	 1	    1.10000	    0.90000;
	27868	 2	 0.0	 0.0	 0.0	 0.0	 6	    1.00000	    0.00000	 138.0	 1	    1.10000	    0.90000;
	27869	 2	 0.0	 0.0	 0.0	 0.0	 6	    1.00000	    0.00000	 138.0	 1	    1.10000	    0.90000;
	27870	 2	 0.0	 0.0	 0.0	 0.0	 6	    1.00000	    0.00000	 138.0	 1	    1.10000	    0.90000;
	27871	 2	 0.0	 0.0	 0.0	 0.0	 6	    1.00000	    0.00000	 69.0	 1	    1.10000	    0.90000;
	27872	 2	 0.0	 0.0	 0.0	 0.0	 6	    1.00000	    0.00000	 230.0	 1	    1.10000	    0.90000;
	27873	 2	 0.0	 0.0	 0.0	 0.0	 6	    1.00000	    0.00000	 138.0	 1	    1.10000	    0.90000;
	27874	 2	 0.0	 0.0	 0.0	 0.0	 6	    1.00000	    0.00000	 138.0	 1	    1.10000	    0.90000;
	27875	 1	 0.0	 0.0	 0.0	 0.0	 6	    1.00000	    0.00000	 138.0	 1	    1.10000	    0.90000;
	27876	 1	 0.0	 0.0	 0.0	 0.0	 6	    1.00000	    0.00000	 138.0	 1	    1.10000	    0.90000;
	27877	 2	 0.0	 0.0	 0.0	 0.0	 6	    1.00000	    0.00000	 138.0	 1	    1.10000	    0.90000;
	27878	 1	 0.0	 0.0	 0.0	 0.0	 6	    1.00000	    0.00000	 138.0	 1	    1.10000	    0.90000;
	27879	 2	 0.0	 0.0	 0.0	 0.0	 6	    1.00000	    0.00000	 138.0	 1	    1.10000	    0.90000;
	27880	 1	 0.0	 0.0	 0.0	 0.0	 6	    1.00000	    0.00000	 230.0	 1	    1.10000	    0.90000;
	27881	 1	 0.0	 0.0	 0.0	 0.0	 6	    1.00000	    0.00000	 138.0	 1	    1.10000	    0.90000;
	27882	 2	 0.0	 0.0	 0.0	 0.0	 6	    1.00000	    0.00000	 69.0	 1	    1.10000	    0.90000;
	27883	 2	 0.0	 0.0	 0.0	 0.0	 6	    1.00000	    0.00000	 138.0	 1	    1.10000	    0.90000;
	27884	 2	 0.0	 0.0	 0.0	 0.0	 6	    1.00000	    0.00000	 69.0	 1	    1.10000	    0.90000;
	27885	 2	 0.0	 0.0	 0.0	 0.0	 6	    1.00000	    0.00000	 138.0	 1	    1.10000	    0.90000;
	27886	 2	 0.0	 0.0	 0.0	 0.0	 6	    1.00000	    0.00000	 69.0	 1	    1.10000	    0.90000;
	27887	 2	 0.0	 0.0	 0.0	 0.0	 6	    1.00000	    0.00000	 69.0	 1	    1.10000	    0.90000;
	27888	 2	 0.0	 0.0	 0.0	 0.0	 6	    1.00000	    0.00000	 138.0	 1	    1.10000	    0.90000;
	27889	 1	 0.0	 0.0	 0.0	 0.0	 6	    1.00000	    0.00000	 138.0	 1	    1.10000	    0.90000;
	27890	 2	 0.0	 0.0	 0.0	 0.0	 6	    1.00000	    0.00000	 69.0	 1	    1.10000	    0.90000;
	27891	 2	 0.0	 0.0	 0.0	 0.0	 6	    1.00000	    0.00000	 138.0	 1	    1.10000	    0.90000;
	27892	 2	 0.0	 0.0	 0.0	 0.0	 6	    1.00000	    0.00000	 69.0	 1	    1.10000	    0.90000;
	27893	 2	 0.0	 0.0	 0.0	 0.0	 6	    1.00000	    0.00000	 69.0	 1	    1.10000	    0.90000;
	27894	 1	 0.0	 0.0	 0.0	 0.0	 6	    1.00000	    0.00000	 500.0	 1	    1.10000	    0.90000;
	27895	 2	 0.0	 0.0	 0.0	 0.0	 6	    1.00000	    0.00000	 500.0	 1	    1.10000	    0.90000;
	27896	 1	 0.0	 0.0	 0.0	 0.0	 6	    1.00000	    0.00000	 138.0	 1	    1.10000	    0.90000;
	27897	 2	 0.0	 0.0	 0.0	 0.0	 6	    1.00000	    0.00000	 138.0	 1	    1.10000	    0.90000;
	27898	 1	 0.0	 0.0	 0.0	 0.0	 6	    1.00000	    0.00000	 138.0	 1	    1.10000	    0.90000;
	27899	 2	 0.0	 0.0	 0.0	 0.0	 6	    1.00000	    0.00000	 138.0	 1	    1.10000	    0.90000;
	27900	 2	 0.0	 0.0	 0.0	 0.0	 6	    1.00000	    0.00000	 138.0	 1	    1.10000	    0.90000;
	27901	 2	 0.0	 0.0	 0.0	 0.0	 6	    1.00000	    0.00000	 138.0	 1	    1.10000	    0.90000;
	27902	 2	 0.0	 0.0	 0.0	 0.0	 6	    1.00000	    0.00000	 138.0	 1	    1.10000	    0.90000;
	27903	 2	 0.0	 0.0	 0.0	 0.0	 6	    1.00000	    0.00000	 138.0	 1	    1.10000	    0.90000;
	27904	 2	 0.0	 0.0	 0.0	 0.0	 6	    1.00000	    0.00000	 69.0	 1	    1.10000	    0.90000;
	27905	 2	 0.0	 0.0	 0.0	 0.0	 6	    1.00000	    0.00000	 69.0	 1	    1.10000	    0.90000;
	27906	 2	 0.0	 0.0	 0.0	 0.0	 6	    1.00000	    0.00000	 69.0	 1	    1.10000	    0.90000;
	27907	 2	 0.0	 0.0	 0.0	 0.0	 6	    1.00000	    0.00000	 69.0	 1	    1.10000	    0.90000;
	27908	 2	 0.0	 0.0	 0.0	 0.0	 6	    1.00000	    0.00000	 69.0	 1	    1.10000	    0.90000;
	27909	 1	 0.0	 0.0	 0.0	 0.0	 6	    1.00000	    0.00000	 138.0	 1	    1.10000	    0.90000;
	27910	 2	 0.0	 0.0	 0.0	 0.0	 6	    1.00000	    0.00000	 69.0	 1	    1.10000	    0.90000;
	27911	 2	 0.0	 0.0	 0.0	 0.0	 6	    1.00000	    0.00000	 69.0	 1	    1.10000	    0.90000;
	27912	 2	 0.0	 0.0	 0.0	 0.0	 6	    1.00000	    0.00000	 69.0	 1	    1.10000	    0.90000;
	27913	 2	 0.0	 0.0	 0.0	 0.0	 6	    1.00000	    0.00000	 69.0	 1	    1.10000	    0.90000;
	27914	 2	 0.0	 0.0	 0.0	 0.0	 6	    1.00000	    0.00000	 138.0	 1	    1.10000	    0.90000;
	28026	 1	 12.85	 6.48	 0.0	 0.0	 6	    1.00000	    0.00000	 69.0	 1	    1.10000	    0.90000;
	28027	 1	 0.0	 0.0	 0.0	 0.0	 6	    1.00000	    0.00000	 500.0	 1	    1.10000	    0.90000;
	28028	 1	 21.06	 9.13	 0.0	 0.0	 6	    1.00000	    0.00000	 138.0	 1	    1.10000	    0.90000;
	28029	 1	 0.0	 0.0	 0.0	 0.0	 6	    1.00000	    0.00000	 138.0	 1	    1.10000	    0.90000;
	28030	 1	 15.92	 7.20	 0.0	 0.0	 6	    1.00000	    0.00000	 69.0	 1	    1.10000	    0.90000;
	28031	 1	 8.97	 3.64	 0.0	 0.0	 6	    1.00000	    0.00000	 69.0	 1	    1.10000	    0.90000;
	28032	 1	 0.0	 0.0	 0.0	 0.0	 6	    1.00000	    0.00000	 138.0	 1	    1.10000	    0.90000;
	28033	 1	 13.16	 5.40	 0.0	 0.0	 6	    1.00000	    0.00000	 69.0	 1	    1.10000	    0.90000;
	28034	 1	 7.03	 3.23	 0.0	 0.0	 6	    1.00000	    0.00000	 69.0	 1	    1.10000	    0.90000;
	28035	 1	 14.49	 6.60	 0.0	 0.0	 6	    1.00000	    0.00000	 69.0	 1	    1.10000	    0.90000;
	28036	 1	 4.07	 1.99	 0.0	 0.0	 6	    1.00000	    0.00000	 69.0	 1	    1.10000	    0.90000;
	28037	 1	 11.16	 5.84	 0.0	 0.0	 6	    1.00000	    0.00000	 69.0	 1	    1.10000	    0.90000;
	28038	 1	 0.0	 0.0	 0.0	 0.0	 6	    1.00000	    0.00000	 138.0	 1	    1.10000	    0.90000;
	28039	 1	 9.27	 4.47	 0.0	 0.0	 6	    1.00000	    0.00000	 69.0	 1	    1.10000	    0.90000;
	28040	 1	 5.28	 2.27	 0.0	 0.0	 6	    1.00000	    0.00000	 69.0	 1	    1.10000	    0.90000;
	28041	 1	 0.0	 0.0	 0.0	 0.0	 6	    1.00000	    0.00000	 138.0	 1	    1.10000	    0.90000;
	28042	 1	 7.95	 3.35	 0.0	 0.0	 6	    1.00000	    0.00000	 138.0	 1	    1.10000	    0.90000;
	28043	 1	 7.94	 3.42	 0.0	 0.0	 6	    1.00000	    0.00000	 69.0	 1	    1.10000	    0.90000;
	28044	 1	 5.70	 2.19	 0.0	 0.0	 6	    1.00000	    0.00000	 69.0	 1	    1.10000	    0.90000;
	28045	 1	 9.26	 4.34	 0.0	 0.0	 6	    1.00000	    0.00000	 69.0	 1	    1.10000	    0.90000;
	28046	 1	 3.04	 1.37	 0.0	 0.0	 6	    1.00000	    0.00000	 69.0	 1	    1.10000	    0.90000;
	28047	 1	 7.28	 3.07	 0.0	 0.0	 6	    1.00000	    0.00000	 69.0	 1	    1.10000	    0.90000;
	28048	 1	 9.03	 4.03	 0.0	 0.0	 6	    1.00000	    0.00000	 69.0	 1	    1.10000	    0.90000;
	28049	 1	 3.81	 1.57	 0.0	 0.0	 6	    1.00000	    0.00000	 69.0	 1	    1.10000	    0.90000;
	28050	 1	 15.91	 5.91	 0.0	 0.0	 6	    1.00000	    0.00000	 69.0	 1	    1.10000	    0.90000;
	28051	 1	 2.82	 1.40	 0.0	 0.0	 6	    1.00000	    0.00000	 69.0	 1	    1.10000	    0.90000;
	28052	 1	 15.63	 7.83	 0.0	 0.0	 6	    1.00000	    0.00000	 69.0	 1	    1.10000	    0.90000;
	28053	 1	 13.74	 6.32	 0.0	 0.0	 6	    1.00000	    0.00000	 69.0	 1	    1.10000	    0.90000;
	28054	 1	 11.67	 5.02	 0.0	 0.0	 6	    1.00000	    0.00000	 69.0	 1	    1.10000	    0.90000;
	28055	 1	 13.52	 6.44	 0.0	 0.0	 6	    1.00000	    0.00000	 138.0	 1	    1.10000	    0.90000;
	28056	 1	 12.85	 5.77	 0.0	 0.0	 6	    1.00000	    0.00000	 69.0	 1	    1.10000	    0.90000;
	28057	 1	 0.0	 0.0	 0.0	 0.0	 6	    1.00000	    0.00000	 138.0	 1	    1.10000	    0.90000;
	28058	 1	 14.16	 5.04	 0.0	 0.0	 6	    1.00000	    0.00000	 138.0	 1	    1.10000	    0.90000;
	28059	 1	 22.48	 11.45	 0.0	 0.0	 6	    1.00000	    0.00000	 138.0	 1	    1.10000	    0.90000;
	28060	 1	 9.61	 4.77	 0.0	 0.0	 6	    1.00000	    0.00000	 69.0	 1	    1.10000	    0.90000;
	28061	 1	 3.77	 1.70	 0.0	 0.0	 6	    1.00000	    0.00000	 69.0	 1	    1.10000	    0.90000;
	28062	 1	 0.0	 0.0	 0.0	 0.0	 6	    1.00000	    0.00000	 138.0	 1	    1.10000	    0.90000;
	28063	 1	 24.02	 7.50	 0.0	 0.0	 6	    1.00000	    0.00000	 69.0	 1	    1.10000	    0.90000;
	28064	 1	 6.78	 3.07	 0.0	 0.0	 6	    1.00000	    0.00000	 69.0	 1	    1.10000	    0.90000;
	28065	 1	 65.36	 31.47	 0.0	 0.0	 6	    1.00000	    0.00000	 500.0	 1	    1.10000	    0.90000;
	28066	 1	 0.0	 0.0	 0.0	 0.0	 6	    1.00000	    0.00000	 138.0	 1	    1.10000	    0.90000;
	28067	 1	 3.34	 1.55	 0.0	 0.0	 6	    1.00000	    0.00000	 69.0	 1	    1.10000	    0.90000;
	28068	 1	 1.59	 0.62	 0.0	 0.0	 6	    1.00000	    0.00000	 69.0	 1	    1.10000	    0.90000;
	28069	 1	 11.86	 4.34	 0.0	 0.0	 6	    1.00000	    0.00000	 69.0	 1	    1.10000	    0.90000;
	28070	 1	 0.0	 0.0	 0.0	 0.0	 6	    1.00000	    0.00000	 138.0	 1	    1.10000	    0.90000;
	28071	 1	 0.0	 0.0	 0.0	 0.0	 6	    1.00000	    0.00000	 138.0	 1	    1.10000	    0.90000;
	28072	 1	 0.0	 0.0	 0.0	 0.0	 6	    1.00000	    0.00000	 138.0	 1	    1.10000	    0.90000;
	28073	 1	 5.92	 2.46	 0.0	 0.0	 6	    1.00000	    0.00000	 69.0	 1	    1.10000	    0.90000;
	28074	 1	 3.68	 1.47	 0.0	 0.0	 6	    1.00000	    0.00000	 69.0	 1	    1.10000	    0.90000;
	28075	 1	 0.0	 0.0	 0.0	 0.0	 6	    1.00000	    0.00000	 138.0	 1	    1.10000	    0.90000;
	28076	 1	 9.06	 3.81	 0.0	 0.0	 6	    1.00000	    0.00000	 138.0	 1	    1.10000	    0.90000;
	28077	 1	 10.63	 4.52	 0.0	 0.0	 6	    1.00000	    0.00000	 69.0	 1	    1.10000	    0.90000;
	28078	 1	 3.63	 1.44	 0.0	 0.0	 6	    1.00000	    0.00000	 69.0	 1	    1.10000	    0.90000;
	28079	 1	 21.14	 7.84	 0.0	 0.0	 6	    1.00000	    0.00000	 69.0	 1	    1.10000	    0.90000;
	28080	 1	 12.15	 4.97	 0.0	 0.0	 6	    1.00000	    0.00000	 69.0	 1	    1.10000	    0.90000;
	28081	 1	 3.16	 1.62	 0.0	 0.0	 6	    1.00000	    0.00000	 69.0	 1	    1.10000	    0.90000;
	28082	 1	 0.0	 0.0	 0.0	 0.0	 6	    1.00000	    0.00000	 138.0	 1	    1.10000	    0.90000;
	28083	 1	 17.57	 6.27	 0.0	 0.0	 6	    1.00000	    0.00000	 69.0	 1	    1.10000	    0.90000;
	28084	 1	 15.36	 2.94	 0.0	 0.0	 6	    1.00000	    0.00000	 69.0	 1	    1.10000	    0.90000;
	28085	 1	 9.95	 4.51	 0.0	 0.0	 6	    1.00000	    0.00000	 69.0	 1	    1.10000	    0.90000;
	28086	 1	 12.25	 4.27	 0.0	 0.0	 6	    1.00000	    0.00000	 69.0	 1	    1.10000	    0.90000;
	28087	 1	 0.0	 0.0	 0.0	 0.0	 6	    1.00000	    0.00000	 138.0	 1	    1.10000	    0.90000;
	28088	 1	 0.0	 0.0	 0.0	 0.0	 6	    1.00000	    0.00000	 230.0	 1	    1.10000	    0.90000;
	28089	 1	 12.45	 6.48	 0.0	 0.0	 6	    1.00000	    0.00000	 138.0	 1	    1.10000	    0.90000;
	28090	 1	 17.87	 7.30	 0.0	 0.0	 6	    1.00000	    0.00000	 69.0	 1	    1.10000	    0.90000;
	28091	 1	 1.67	 0.69	 0.0	 0.0	 6	    1.00000	    0.00000	 69.0	 1	    1.10000	    0.90000;
	28092	 1	 0.0	 0.0	 0.0	 0.0	 6	    1.00000	    0.00000	 138.0	 1	    1.10000	    0.90000;
	28093	 1	 0.0	 0.0	 0.0	 0.0	 6	    1.00000	    0.00000	 138.0	 1	    1.10000	    0.90000;
	28094	 1	 5.67	 2.37	 0.0	 0.0	 6	    1.00000	    0.00000	 69.0	 1	    1.10000	    0.90000;
	28095	 1	 7.22	 3.31	 0.0	 0.0	 6	    1.00000	    0.00000	 69.0	 1	    1.10000	    0.90000;
	28096	 1	 5.21	 2.00	 0.0	 0.0	 6	    1.00000	    0.00000	 69.0	 1	    1.10000	    0.90000;
	28097	 1	 11.14	 5.54	 0.0	 0.0	 6	    1.00000	    0.00000	 69.0	 1	    1.10000	    0.90000;
	28098	 1	 28.28	 8.04	 0.0	 0.0	 6	    1.00000	    0.00000	 69.0	 1	    1.10000	    0.90000;
	28099	 1	 9.52	 4.24	 0.0	 0.0	 6	    1.00000	    0.00000	 138.0	 1	    1.10000	    0.90000;
	28100	 1	 0.0	 0.0	 0.0	 0.0	 6	    1.00000	    0.00000	 138.0	 1	    1.10000	    0.90000;
	28101	 1	 0.0	 0.0	 0.0	 0.0	 6	    1.00000	    0.00000	 138.0	 1	    1.10000	    0.90000;
	28102	 1	 23.51	 9.49	 0.0	 0.0	 6	    1.00000	    0.00000	 69.0	 1	    1.10000	    0.90000;
	28103	 1	 11.06	 5.55	 0.0	 0.0	 6	    1.00000	    0.00000	 138.0	 1	    1.10000	    0.90000;
	28104	 1	 0.0	 0.0	 0.0	 0.0	 6	    1.00000	    0.00000	 138.0	 1	    1.10000	    0.90000;
	28105	 1	 0.0	 0.0	 0.0	 0.0	 6	    1.00000	    0.00000	 138.0	 1	    1.10000	    0.90000;
	28106	 1	 19.00	 7.75	 0.0	 0.0	 6	    1.00000	    0.00000	 69.0	 1	    1.10000	    0.90000;
	28107	 1	 24.98	 9.24	 0.0	 0.0	 6	    1.00000	    0.00000	 69.0	 1	    1.10000	    0.90000;
	28108	 1	 0.0	 0.0	 0.0	 0.0	 6	    1.00000	    0.00000	 138.0	 1	    1.10000	    0.90000;
	28109	 1	 10.19	 4.16	 0.0	 0.0	 6	    1.00000	    0.00000	 69.0	 1	    1.10000	    0.90000;
	28110	 1	 19.08	 8.79	 0.0	 0.0	 6	    1.00000	    0.00000	 69.0	 1	    1.10000	    0.90000;
	28111	 1	 7.79	 3.53	 0.0	 0.0	 6	    1.00000	    0.00000	 69.0	 1	    1.10000	    0.90000;
	28112	 1	 0.0	 0.0	 0.0	 0.0	 6	    1.00000	    0.00000	 230.0	 1	    1.10000	    0.90000;
	28113	 1	 17.98	 7.34	 0.0	 0.0	 6	    1.00000	    0.00000	 69.0	 1	    1.10000	    0.90000;
	28114	 1	 7.98	 3.49	 0.0	 0.0	 6	    1.00000	    0.00000	 69.0	 1	    1.10000	    0.90000;
	28115	 1	 12.48	 5.38	 0.0	 0.0	 6	    1.00000	    0.00000	 69.0	 1	    1.10000	    0.90000;
	28116	 1	 7.39	 3.72	 0.0	 0.0	 6	    1.00000	    0.00000	 69.0	 1	    1.10000	    0.90000;
	28117	 1	 11.43	 5.49	 0.0	 0.0	 6	    1.00000	    0.00000	 69.0	 1	    1.10000	    0.90000;
	28118	 1	 10.83	 4.16	 0.0	 0.0	 6	    1.00000	    0.00000	 69.0	 1	    1.10000	    0.90000;
	28119	 1	 10.64	 4.93	 0.0	 0.0	 6	    1.00000	    0.00000	 69.0	 1	    1.10000	    0.90000;
	28120	 1	 1.68	 0.78	 0.0	 0.0	 6	    1.00000	    0.00000	 69.0	 1	    1.10000	    0.90000;
...
];

%% generator data
%	bus	Pg	Qg	Qmax	Qmin	Vg	mBase	status	Pmax	Pmin	Pc1	Pc2	Qc1min	Qc1max	Qc2min	Qc2max	ramp_agc	ramp_10	ramp_30	ramp_q	apf
mpc.gen = [
	27810	 827.25	 0.0	 581.0	 -581.0	 1.0	 100.0	 1	 1161	 493.5	 0.0	 0.0	 0.0	 0.0	 0.0	 0.0	 0.0	 0.0	 0.0	 0.0	 0.0; % NG
	27810	 1132.25	 0.0	 887.0	 -887.0	 1.0	 100.0	 1	 1774	 490.5	 0.0	 0.0	 0.0	 0.0	 0.0	 0.0	 0.0	 0.0	 0.0	 0.0	 0.0; % COW
	27811	 561.0	 0.0	 645.6	 -645.6	 1.0	 100.0	 1	 947	 175.0	 0.0	 0.0	 0.0	 0.0	 0.0	 0.0	 0.0	 0.0	 0.0	 0.0	 735.9; % COW
	27811	 547.5	 0.0	 645.6	 -645.6	 1.0	 100.0	 1	 920	 175.0	 0.0	 0.0	 0.0	 0.0	 0.0	 0.0	 0.0	 0.0	 0.0	 0.0	 735.9; % COW
	27812	 360.0	 9.45	 328.9	 -310.0	 1.0	 100.0	 1	 620	 100.0	 0.0	 0.0	 0.0	 0.0	 0.0	 0.0	 0.0	 0.0	 0.0	 0.0	 679.0; % COW
	27812	 556.5	 0.0	 507.0	 -507.0	 1.0	 100.0	 1	 1013	 100.0	 0.0	 0.0	 0.0	 0.0	 0.0	 0.0	 0.0	 0.0	 0.0	 0.0	 679.0; % COW
	27813	 153.5	 42.0	 269.4	 -185.4	 1.0	 100.0	 1	 262	 45.0	 0.0	 0.0	 0.0	 0.0	 0.0	 0.0	 0.0	 0.0	 0.0	 0.0	 556.2; % NG
	27813	 547.0	 0.0	 527.0	 -527.0	 1.0	 100.0	 1	 1054	 40.0	 0.0	 0.0	 0.0	 0.0	 0.0	 0.0	 0.0	 0.0	 0.0	 0.0	 556.2; % COW
	27814	 217.75	 0.0	 210.0	 -210.0	 1.0	 100.0	 1	 358	 77.5	 0.0	 0.0	 0.0	 0.0	 0.0	 0.0	 0.0	 0.0	 0.0	 0.0	 203.2; % NG
	27814	 157.75	 7.5	 225.0	 -210.0	 1.0	 100.0	 1	 268	 47.5	 0.0	 0.0	 0.0	 0.0	 0.0	 0.0	 0.0	 0.0	 0.0	 0.0	 464.5; % NG
	27814	 157.5	 7.5	 225.0	 -210.0	 1.0	 100.0	 1	 270	 45.0	 0.0	 0.0	 0.0	 0.0	 0.0	 0.0	 0.0	 0.0	 0.0	 0.0	 464.5; % COW
	27814	 116.6975	 0.0	 210.0	 -210.0	 1.0	 100.0	 1	 199	 34.395	 0.0	 0.0	 0.0	 0.0	 0.0	 0.0	 0.0	 0.0	 0.0	 0.0	 129.8; % NG
	27815	 101.5	 0.0	 98.0	 -98.0	 1.0	 100.0	 1	 196	 7.0	 0.0	 0.0	 0.0	 0.0	 0.0	 0.0	 0.0	 0.0	 0.0	 0.0	 62.0; % NG
	27815	 198.5	 32.4	 215.8	 -151.0	 1.0	 100.0	 1	 302	 95.0	 0.0	 0.0	 0.0	 0.0	 0.0	 0.0	 0.0	 0.0	 0.0	 0.0	 445.5; % COW
	27815	 274.75	 0.0	 229.0	 -229.0	 1.0	 100.0	 1	 457	 92.5	 0.0	 0.0	 0.0	 0.0	 0.0	 0.0	 0.0	 0.0	 0.0	 0.0	 445.5; % COW
	27815	 204.25	 28.9	 215.8	 -158.0	 1.0	 100.0	 1	 316	 92.5	 0.0	 0.0	 0.0	 0.0	 0.0	 0.0	 0.0	 0.0	 0.0	 0.0	 445.5; % NG
	27815	 182.75	 36.7	 235.4	 -162.0	 1.0	 100.0	 1	 287	 78.5	 0.0	 0.0	 0.0	 0.0	 0.0	 0.0	 0.0	 0.0	 0.0	 0.0	 486.0; % COW
	27816	 377.75	 18.0	 358.0	 -322.0	 1.0	 100.0	 1	 643	 112.5	 0.0	 0.0	 0.0	 0.0	 0.0	 0.0	 0.0	 0.0	 0.0	 0.0	 739.2; % COW
	27816	 299.75	 55.8	 358.0	 -246.4	 1.0	 100.0	 1	 487	 112.5	 0.0	 0.0	 0.0	 0.0	 0.0	 0.0	 0.0	 0.0	 0.0	 0.0	 739.2; % COW
	27816	 392.41	 58.1	 431.2	 -315.0	 1.0	 100.0	 1	 629	 155.82	 0.0	 0.0	 0.0	 0.0	 0.0	 0.0	 0.0	 0.0	 0.0	 0.0	 0.0; % NG
	27816	 263.0	 0.0	 238.0	 -238.0	 1.0	 100.0	 1	 476	 50.0	 0.0	 0.0	 0.0	 0.0	 0.0	 0.0	 0.0	 0.0	 0.0	 0.0	 440.5; % NG
	27816	 228.0	 27.85	 253.7	 -198.0	 1.0	 100.0	 1	 396	 60.0	 0.0	 0.0	 0.0	 0.0	 0.0	 0.0	 0.0	 0.0	 0.0	 0.0	 523.8; % NG
	27817	 211.6	 0.0	 192.0	 -192.0	 1.0	 100.0	 1	 383	 40.2	 0.0	 0.0	 0.0	 0.0	 0.0	 0.0	 0.0	 0.0	 0.0	 0.0	 402.0; % NG
	27817	 107.6	 0.0	 182.0	 -182.0	 1.0	 100.0	 1	 175	 40.2	 0.0	 0.0	 0.0	 0.0	 0.0	 0.0	 0.0	 0.0	 0.0	 0.0	 402.0; % COW
	27819	 39.0	 -4.3	 61.0	 -69.6	 1.0	 100.0	 1	 63	 15.0	 0.0	 0.0	 0.0	 0.0	 0.0	 0.0	 0.0	 0.0	 0.0	 0.0	 126.0; % NG
	27819	 45.25	 0.0	 69.6	 -69.6	 1.0	 100.0	 1	 89	 1.5	 0.0	 0.0	 0.0	 0.0	 0.0	 0.0	 0.0	 0.0	 0.0	 0.0	 26.6; % NG
	27819	 106.75	 0.0	 101.0	 -101.0	 1.0	 100.0	 1	 201	 12.5	 0.0	 0.0	 0.0	 0.0	 0.0	 0.0	 0.0	 0.0	 0.0	 0.0	 103.5; % NG
	27819	 119.5	 17.8	 120.6	 -85.0	 1.0	 100.0	 1	 169	 70.0	 0.0	 0.0	 0.0	 0.0	 0.0	 0.0	 0.0	 0.0	 0.0	 0.0	 249.0; % NG
	27819	 299.0	 0.0	 254.0	 -254.0	 1.0	 100.0	 1	 508	 90.0	 0.0	 0.0	 0.0	 0.0	 0.0	 0.0	 0.0	 0.0	 0.0	 0.0	 363.8; % COW
	27819	 141.5	 0.0	 112.0	 -112.0	 1.0	 100.0	 1	 223	 60.0	 0.0	 0.0	 0.0	 0.0	 0.0	 0.0	 0.0	 0.0	 0.0	 0.0	 120.0; % NG
	27820	 102.02	 0.0	 140.5	 -140.5	 1.0	 100.0	 1	 173	 31.04	 0.0	 0.0	 0.0	 0.0	 0.0	 0.0	 0.0	 0.0	 0.0	 0.0	 310.4; % NG
	27820	 133.02	 0.0	 140.5	 -140.5	 1.0	 100.0	 1	 235	 31.04	 0.0	 0.0	 0.0	 0.0	 0.0	 0.0	 0.0	 0.0	 0.0	 0.0	 310.4; % NG
	27821	 337.5	 38.3	 326.6	 -250.0	 1.0	 100.0	 1	 500	 175.0	 0.0	 0.0	 0.0	 0.0	 0.0	 0.0	 0.0	 0.0	 0.0	 0.0	 527.0; % NG
	27821	 333.0	 40.3	 326.6	 -246.0	 1.0	 100.0	 1	 491	 175.0	 0.0	 0.0	 0.0	 0.0	 0.0	 0.0	 0.0	 0.0	 0.0	 0.0	 527.0; % NG
	27821	 192.0	 25.35	 184.7	 -134.0	 1.0	 100.0	 1	 268	 116.0	 0.0	 0.0	 0.0	 0.0	 0.0	 0.0	 0.0	 0.0	 0.0	 0.0	 298.0; % NG
	27821	 309.0	 0.0	 251.0	 -251.0	 1.0	 100.0	 1	 502	 116.0	 0.0	 0.0	 0.0	 0.0	 0.0	 0.0	 0.0	 0.0	 0.0	 0.0	 298.0; % NG
	27821	 401.5	 0.0	 344.0	 -344.0	 1.0	 100.0	 1	 687	 116.0	 0.0	 0.0	 0.0	 0.0	 0.0	 0.0	 0.0	 0.0	 0.0	 0.0	 298.0; % NG
	27821	 359.5	 0.0	 302.0	 -302.0	 1.0	 100.0	 1	 603	 116.0	 0.0	 0.0	 0.0	 0.0	 0.0	 0.0	 0.0	 0.0	 0.0	 0.0	 298.0; % COW
	27821	 235.5	 3.35	 184.7	 -178.0	 1.0	 100.0	 1	 355	 116.0	 0.0	 0.0	 0.0	 0.0	 0.0	 0.0	 0.0	 0.0	 0.0	 0.0	 298.0; % COW
	27821	 275.0	 0.0	 217.0	 -217.0	 1.0	 100.0	 1	 434	 116.0	 0.0	 0.0	 0.0	 0.0	 0.0	 0.0	 0.0	 0.0	 0.0	 0.0	 298.0; % NG
	27822	 93.75	 0.0	 160.8	 -160.8	 1.0	 100.0	 1	 180	 7.5	 0.0	 0.0	 0.0	 0.0	 0.0	 0.0	 0.0	 0.0	 0.0	 0.0	 62.1; % NG
	27822	 113.25	 0.0	 160.8	 -160.8	 1.0	 100.0	 1	 219	 7.5	 0.0	 0.0	 0.0	 0.0	 0.0	 0.0	 0.0	 0.0	 0.0	 0.0	 62.1; % NG
	27822	 126.25	 0.0	 160.8	 -160.8	 1.0	 100.0	 1	 245	 7.5	 0.0	 0.0	 0.0	 0.0	 0.0	 0.0	 0.0	 0.0	 0.0	 0.0	 62.1; % NG
	27822	 206.75	 0.0	 203.0	 -203.0	 1.0	 100.0	 1	 406	 7.5	 0.0	 0.0	 0.0	 0.0	 0.0	 0.0	 0.0	 0.0	 0.0	 0.0	 62.1; % NG
	27822	 296.5	 0.0	 284.0	 -284.0	 1.0	 100.0	 1	 568	 25.0	 0.0	 0.0	 0.0	 0.0	 0.0	 0.0	 0.0	 0.0	 0.0	 0.0	 563.7; % COW
	27822	 468.0	 0.0	 423.0	 -423.0	 1.0	 100.0	 1	 846	 90.0	 0.0	 0.0	 0.0	 0.0	 0.0	 0.0	 0.0	 0.0	 0.0	 0.0	 297.5; % COW
	27822	 530.5	 0.0	 486.0	 -486.0	 1.0	 100.0	 1	 971	 90.0	 0.0	 0.0	 0.0	 0.0	 0.0	 0.0	 0.0	 0.0	 0.0	 0.0	 297.5; % COW
	27823	 218.5	 0.0	 220.8	 -220.8	 1.0	 100.0	 1	 392	 45.0	 0.0	 0.0	 0.0	 0.0	 0.0	 0.0	 0.0	 0.0	 0.0	 0.0	 291.6; % NG
	27824	 63.75	 0.0	 142.8	 -142.8	 1.0	 100.0	 1	 126	 1.5	 0.0	 0.0	 0.0	 0.0	 0.0	 0.0	 0.0	 0.0	 0.0	 0.0	 24.6; % NG
	27824	 33.25	 0.0	 33.0	 -33.0	 1.0	 100.0	 1	 65	 1.5	 0.0	 0.0	 0.0	 0.0	 0.0	 0.0	 0.0	 0.0	 0.0	 0.0	 24.6; % PEL
	27824	 163.25	 0.0	 158.0	 -158.0	 1.0	 100.0	 1	 316	 10.5	 0.0	 0.0	 0.0	 0.0	 0.0	 0.0	 0.0	 0.0	 0.0	 0.0	 75.0; % NG
	27824	 64.5	 3.8	 59.6	 -52.0	 1.0	 100.0	 1	 104	 25.0	 0.0	 0.0	 0.0	 0.0	 0.0	 0.0	 0.0	 0.0	 0.0	 0.0	 96.1; % NG
	27824	 85.75	 35.9	 155.4	 -83.6	 1.0	 100.0	 1	 139	 32.5	 0.0	 0.0	 0.0	 0.0	 0.0	 0.0	 0.0	 0.0	 0.0	 0.0	 250.7; % NG
	27825	 139.0	 8.55	 136.1	 -119.0	 1.0	 100.0	 1	 238	 40.0	 0.0	 0.0	 0.0	 0.0	 0.0	 0.0	 0.0	 0.0	 0.0	 0.0	 219.6; % NG
	27825	 67.25	 27.5	 118.9	 -63.9	 1.0	 100.0	 1	 102	 32.5	 0.0	 0.0	 0.0	 0.0	 0.0	 0.0	 0.0	 0.0	 0.0	 0.0	 191.8; % NG
	27826	 67.0	 0.0	 150.0	 -150.0	 1.0	 100.0	 1	 124	 10.0	 0.0	 0.0	 0.0	 0.0	 0.0	 0.0	 0.0	 0.0	 0.0	 0.0	 55.4; % NG
	27826	 84.0	 0.0	 79.0	 -79.0	 1.0	 100.0	 1	 158	 10.0	 0.0	 0.0	 0.0	 0.0	 0.0	 0.0	 0.0	 0.0	 0.0	 0.0	 55.4; % NG
	27826	 53.5	 0.0	 49.0	 -49.0	 1.0	 100.0	 1	 97	 10.0	 0.0	 0.0	 0.0	 0.0	 0.0	 0.0	 0.0	 0.0	 0.0	 0.0	 55.4; % NG
	27826	 170.5	 0.0	 166.0	 -166.0	 1.0	 100.0	 1	 331	 10.0	 0.0	 0.0	 0.0	 0.0	 0.0	 0.0	 0.0	 0.0	 0.0	 0.0	 55.4; % NG
	27826	 151.9075	 31.8	 204.0	 -140.4	 1.0	 100.0	 1	 228	 75.815	 0.0	 0.0	 0.0	 0.0	 0.0	 0.0	 0.0	 0.0	 0.0	 0.0	 421.2; % NG
	27826	 106.9225	 22.5	 129.0	 -84.0	 1.0	 100.0	 1	 167	 46.845	 0.0	 0.0	 0.0	 0.0	 0.0	 0.0	 0.0	 0.0	 0.0	 0.0	 208.2; % NG
	27826	 155.9225	 0.0	 193.2	 -193.2	 1.0	 100.0	 1	 265	 46.845	 0.0	 0.0	 0.0	 0.0	 0.0	 0.0	 0.0	 0.0	 0.0	 0.0	 208.2; % NG
	27826	 173.9225	 0.0	 151.0	 -151.0	 1.0	 100.0	 1	 301	 46.845	 0.0	 0.0	 0.0	 0.0	 0.0	 0.0	 0.0	 0.0	 0.0	 0.0	 208.2; % COW
	27826	 361.9225	 0.0	 339.0	 -339.0	 1.0	 100.0	 1	 677	 46.845	 0.0	 0.0	 0.0	 0.0	 0.0	 0.0	 0.0	 0.0	 0.0	 0.0	 208.2; % NG
	27827	 126.0	 11.45	 123.9	 -101.0	 1.0	 100.0	 1	 202	 50.0	 0.0	 0.0	 0.0	 0.0	 0.0	 0.0	 0.0	 0.0	 0.0	 0.0	 200.0; % NG
	27827	 107.5	 20.45	 123.9	 -83.0	 1.0	 100.0	 1	 165	 50.0	 0.0	 0.0	 0.0	 0.0	 0.0	 0.0	 0.0	 0.0	 0.0	 0.0	 200.0; % NG
	27827	 158.0	 0.0	 133.0	 -133.0	 1.0	 100.0	 1	 266	 50.0	 0.0	 0.0	 0.0	 0.0	 0.0	 0.0	 0.0	 0.0	 0.0	 0.0	 200.0; % NG
	27828	 137.75	 4.95	 123.9	 -114.0	 1.0	 100.0	 1	 228	 47.5	 0.0	 0.0	 0.0	 0.0	 0.0	 0.0	 0.0	 0.0	 0.0	 0.0	 200.0; % NG
	27828	 57.5	 0.6	 46.2	 -45.0	 1.0	 100.0	 1	 90	 25.0	 0.0	 0.0	 0.0	 0.0	 0.0	 0.0	 0.0	 0.0	 0.0	 0.0	 74.5; % NG
	27829	 103.0	 22.8	 123.6	 -78.0	 1.0	 100.0	 1	 156	 50.0	 0.0	 0.0	 0.0	 0.0	 0.0	 0.0	 0.0	 0.0	 0.0	 0.0	 199.4; % NG
	27829	 142.0	 3.3	 123.6	 -117.0	 1.0	 100.0	 1	 234	 50.0	 0.0	 0.0	 0.0	 0.0	 0.0	 0.0	 0.0	 0.0	 0.0	 0.0	 199.4; % NG
	27830	 79.5	 28.5	 123.3	 -66.3	 1.0	 100.0	 1	 119	 40.0	 0.0	 0.0	 0.0	 0.0	 0.0	 0.0	 0.0	 0.0	 0.0	 0.0	 199.0; % NG
	27830	 76.5	 28.5	 123.3	 -66.3	 1.0	 100.0	 1	 113	 40.0	 0.0	 0.0	 0.0	 0.0	 0.0	 0.0	 0.0	 0.0	 0.0	 0.0	 199.0; % NG
	27830	 82.25	 20.15	 117.1	 -76.8	 1.0	 100.0	 1	 142	 22.5	 0.0	 0.0	 0.0	 0.0	 0.0	 0.0	 0.0	 0.0	 0.0	 0.0	 189.0; % NG
	27831	 95.5	 0.0	 93.0	 -93.0	 1.0	 100.0	 1	 185	 6.0	 0.0	 0.0	 0.0	 0.0	 0.0	 0.0	 0.0	 0.0	 0.0	 0.0	 60.0; % PEL
	27831	 127.0	 0.0	 124.0	 -124.0	 1.0	 100.0	 1	 248	 6.0	 0.0	 0.0	 0.0	 0.0	 0.0	 0.0	 0.0	 0.0	 0.0	 0.0	 60.0; % NG
	27831	 133.25	 0.0	 133.0	 -133.0	 1.0	 100.0	 1	 265	 1.5	 0.0	 0.0	 0.0	 0.0	 0.0	 0.0	 0.0	 0.0	 0.0	 0.0	 27.0; % NG
	27831	 117.0	 0.0	 110.0	 -110.0	 1.0	 100.0	 1	 219	 15.0	 0.0	 0.0	 0.0	 0.0	 0.0	 0.0	 0.0	 0.0	 0.0	 0.0	 75.0; % PEL
	27831	 218.5	 0.0	 189.0	 -189.0	 1.0	 100.0	 1	 377	 60.0	 0.0	 0.0	 0.0	 0.0	 0.0	 0.0	 0.0	 0.0	 0.0	 0.0	 259.2; % NG
	27831	 211.5	 0.0	 194.0	 -194.0	 1.0	 100.0	 1	 388	 35.0	 0.0	 0.0	 0.0	 0.0	 0.0	 0.0	 0.0	 0.0	 0.0	 0.0	 198.9; % NG
	27832	 94.0	 27.1	 123.2	 -69.0	 1.0	 100.0	 1	 137	 51.0	 0.0	 0.0	 0.0	 0.0	 0.0	 0.0	 0.0	 0.0	 0.0	 0.0	 198.8; % NG
	27832	 155.0	 0.0	 130.0	 -130.0	 1.0	 100.0	 1	 259	 51.0	 0.0	 0.0	 0.0	 0.0	 0.0	 0.0	 0.0	 0.0	 0.0	 0.0	 198.9; % NG
	27832	 323.5	 0.0	 298.0	 -298.0	 1.0	 100.0	 1	 596	 51.0	 0.0	 0.0	 0.0	 0.0	 0.0	 0.0	 0.0	 0.0	 0.0	 0.0	 198.9; % NG
	27832	 108.5	 20.15	 123.3	 -83.0	 1.0	 100.0	 1	 166	 51.0	 0.0	 0.0	 0.0	 0.0	 0.0	 0.0	 0.0	 0.0	 0.0	 0.0	 198.9; % COW
	27832	 167.0	 0.0	 142.0	 -142.0	 1.0	 100.0	 1	 283	 51.0	 0.0	 0.0	 0.0	 0.0	 0.0	 0.0	 0.0	 0.0	 0.0	 0.0	 198.9; % NG
	27833	 259.75	 0.0	 227.0	 -227.0	 1.0	 100.0	 1	 454	 65.5	 0.0	 0.0	 0.0	 0.0	 0.0	 0.0	 0.0	 0.0	 0.0	 0.0	 195.2; % COW
	27833	 96.75	 0.0	 79.0	 -79.0	 1.0	 100.0	 1	 158	 35.5	 0.0	 0.0	 0.0	 0.0	 0.0	 0.0	 0.0	 0.0	 0.0	 0.0	 82.9; % COW
	27834	 173.75	 0.0	 152.0	 -152.0	 1.0	 100.0	 1	 303	 44.5	 0.0	 0.0	 0.0	 0.0	 0.0	 0.0	 0.0	 0.0	 0.0	 0.0	 175.8; % NG
	27834	 92.25	 0.0	 115.2	 -115.2	 1.0	 100.0	 1	 140	 44.5	 0.0	 0.0	 0.0	 0.0	 0.0	 0.0	 0.0	 0.0	 0.0	 0.0	 175.8; % NG
	27834	 105.75	 -0.35	 114.5	 -115.2	 1.0	 100.0	 1	 167	 44.5	 0.0	 0.0	 0.0	 0.0	 0.0	 0.0	 0.0	 0.0	 0.0	 0.0	 192.9; % NG
	27834	 99.25	 -3.1	 109.0	 -115.2	 1.0	 100.0	 1	 154	 44.5	 0.0	 0.0	 0.0	 0.0	 0.0	 0.0	 0.0	 0.0	 0.0	 0.0	 175.8; % COW
	27834	 99.75	 -3.1	 109.0	 -115.2	 1.0	 100.0	 1	 155	 44.5	 0.0	 0.0	 0.0	 0.0	 0.0	 0.0	 0.0	 0.0	 0.0	 0.0	 175.8; % NG
	27834	 59.25	 0.0	 115.2	 -115.2	 1.0	 100.0	 1	 102	 16.5	 0.0	 0.0	 0.0	 0.0	 0.0	 0.0	 0.0	 0.0	 0.0	 0.0	 133.4; % NG
	27835	 68.5	 37.2	 161.1	 -86.7	 1.0	 100.0	 1	 107	 30.0	 0.0	 0.0	 0.0	 0.0	 0.0	 0.0	 0.0	 0.0	 0.0	 0.0	 260.0; % COW
	27835	 300.0	 0.0	 275.0	 -275.0	 1.0	 100.0	 1	 550	 50.0	 0.0	 0.0	 0.0	 0.0	 0.0	 0.0	 0.0	 0.0	 0.0	 0.0	 192.1; % NG
	27835	 194.0	 0.0	 169.0	 -169.0	 1.0	 100.0	 1	 338	 50.0	 0.0	 0.0	 0.0	 0.0	 0.0	 0.0	 0.0	 0.0	 0.0	 0.0	 192.1; % NG
	27836	 201.0	 0.0	 198.0	 -198.0	 1.0	 100.0	 1	 395	 7.0	 0.0	 0.0	 0.0	 0.0	 0.0	 0.0	 0.0	 0.0	 0.0	 0.0	 69.9; % NG
	27836	 180.5	 0.0	 161.0	 -161.0	 1.0	 100.0	 1	 322	 39.0	 0.0	 0.0	 0.0	 0.0	 0.0	 0.0	 0.0	 0.0	 0.0	 0.0	 189.9; % COW
	27836	 112.0	 0.0	 115.2	 -115.2	 1.0	 100.0	 1	 185	 39.0	 0.0	 0.0	 0.0	 0.0	 0.0	 0.0	 0.0	 0.0	 0.0	 0.0	 189.9; % NG
	27836	 134.0	 0.0	 115.2	 -115.2	 1.0	 100.0	 1	 229	 39.0	 0.0	 0.0	 0.0	 0.0	 0.0	 0.0	 0.0	 0.0	 0.0	 0.0	 189.9; % NG
	27836	 119.25	 16.6	 148.4	 -115.2	 1.0	 100.0	 1	 215	 23.5	 0.0	 0.0	 0.0	 0.0	 0.0	 0.0	 0.0	 0.0	 0.0	 0.0	 239.4; % NG
	27836	 57.0	 0.0	 115.2	 -115.2	 1.0	 100.0	 1	 107	 7.0	 0.0	 0.0	 0.0	 0.0	 0.0	 0.0	 0.0	 0.0	 0.0	 0.0	 69.9; % PEL
	27836	 84.5	 0.0	 115.2	 -115.2	 1.0	 100.0	 1	 162	 7.0	 0.0	 0.0	 0.0	 0.0	 0.0	 0.0	 0.0	 0.0	 0.0	 0.0	 69.9; % PEL
	27836	 61.5	 0.0	 115.2	 -115.2	 1.0	 100.0	 1	 116	 7.0	 0.0	 0.0	 0.0	 0.0	 0.0	 0.0	 0.0	 0.0	 0.0	 0.0	 69.9; % PEL
	27836	 106.0	 33.65	 215.9	 -148.6	 1.0	 100.0	 1	 186	 26.0	 0.0	 0.0	 0.0	 0.0	 0.0	 0.0	 0.0	 0.0	 0.0	 0.0	 445.7; % COW
	27836	 136.0	 0.0	 117.0	 -117.0	 1.0	 100.0	 1	 233	 39.0	 0.0	 0.0	 0.0	 0.0	 0.0	 0.0	 0.0	 0.0	 0.0	 0.0	 189.9; % NG
	27836	 102.5	 0.0	 115.2	 -115.2	 1.0	 100.0	 1	 166	 39.0	 0.0	 0.0	 0.0	 0.0	 0.0	 0.0	 0.0	 0.0	 0.0	 0.0	 189.9; % NG
	27836	 114.0	 0.0	 115.2	 -115.2	 1.0	 100.0	 1	 189	 39.0	 0.0	 0.0	 0.0	 0.0	 0.0	 0.0	 0.0	 0.0	 0.0	 0.0	 189.9; % NG
	27836	 137.5	 0.0	 118.0	 -118.0	 1.0	 100.0	 1	 236	 39.0	 0.0	 0.0	 0.0	 0.0	 0.0	 0.0	 0.0	 0.0	 0.0	 0.0	 189.9; % NG
	27837	 188.365	 0.0	 175.0	 -175.0	 1.0	 100.0	 1	 350	 26.73	 0.0	 0.0	 0.0	 0.0	 0.0	 0.0	 0.0	 0.0	 0.0	 0.0	 156.2; % NG
	27837	 27.25	 0.0	 57.6	 -57.6	 1.0	 100.0	 1	 52	 2.5	 0.0	 0.0	 0.0	 0.0	 0.0	 0.0	 0.0	 0.0	 0.0	 0.0	 62.0; % NG
	27837	 44.25	 0.0	 57.6	 -57.6	 1.0	 100.0	 1	 86	 2.5	 0.0	 0.0	 0.0	 0.0	 0.0	 0.0	 0.0	 0.0	 0.0	 0.0	 62.0; % NG
	27837	 61.25	 0.0	 60.0	 -60.0	 1.0	 100.0	 1	 120	 2.5	 0.0	 0.0	 0.0	 0.0	 0.0	 0.0	 0.0	 0.0	 0.0	 0.0	 62.0; % NG
	27837	 78.25	 0.0	 77.0	 -77.0	 1.0	 100.0	 1	 154	 2.5	 0.0	 0.0	 0.0	 0.0	 0.0	 0.0	 0.0	 0.0	 0.0	 0.0	 62.0; % NG
	27837	 143.75	 4.1	 112.2	 -104.0	 1.0	 100.0	 1	 208	 79.5	 0.0	 0.0	 0.0	 0.0	 0.0	 0.0	 0.0	 0.0	 0.0	 0.0	 181.0; % NG
	27837	 104.25	 6.1	 112.2	 -100.0	 1.0	 100.0	 1	 199	 9.5	 0.0	 0.0	 0.0	 0.0	 0.0	 0.0	 0.0	 0.0	 0.0	 0.0	 181.0; % NG
	27837	 141.25	 62.45	 270.3	 -145.4	 1.0	 100.0	 1	 204	 78.5	 0.0	 0.0	 0.0	 0.0	 0.0	 0.0	 0.0	 0.0	 0.0	 0.0	 436.1; % NG
	27837	 112.5	 13.3	 116.6	 -90.0	 1.0	 100.0	 1	 180	 45.0	 0.0	 0.0	 0.0	 0.0	 0.0	 0.0	 0.0	 0.0	 0.0	 0.0	 188.2; % NG
	27837	 134.0	 2.3	 116.6	 -112.0	 1.0	 100.0	 1	 223	 45.0	 0.0	 0.0	 0.0	 0.0	 0.0	 0.0	 0.0	 0.0	 0.0	 0.0	 188.2; % NG
	27837	 129.0	 4.8	 116.6	 -107.0	 1.0	 100.0	 1	 213	 45.0	 0.0	 0.0	 0.0	 0.0	 0.0	 0.0	 0.0	 0.0	 0.0	 0.0	 188.2; % NG
	27837	 34.25	 0.0	 57.6	 -57.6	 1.0	 100.0	 1	 66	 2.5	 0.0	 0.0	 0.0	 0.0	 0.0	 0.0	 0.0	 0.0	 0.0	 0.0	 62.0; % NG
	27837	 183.5	 0.0	 161.0	 -161.0	 1.0	 100.0	 1	 322	 45.0	 0.0	 0.0	 0.0	 0.0	 0.0	 0.0	 0.0	 0.0	 0.0	 0.0	 188.2; % NG
	27837	 212.5	 0.0	 190.0	 -190.0	 1.0	 100.0	 1	 380	 45.0	 0.0	 0.0	 0.0	 0.0	 0.0	 0.0	 0.0	 0.0	 0.0	 0.0	 188.2; % NG
	27837	 307.5	 0.0	 285.0	 -285.0	 1.0	 100.0	 1	 570	 45.0	 0.0	 0.0	 0.0	 0.0	 0.0	 0.0	 0.0	 0.0	 0.0	 0.0	 188.2; % NG
	27837	 23.75	 0.0	 57.6	 -57.6	 1.0	 100.0	 1	 45	 2.5	 0.0	 0.0	 0.0	 0.0	 0.0	 0.0	 0.0	 0.0	 0.0	 0.0	 62.0; % NG
	27837	 33.75	 0.0	 57.6	 -57.6	 1.0	 100.0	 1	 65	 2.5	 0.0	 0.0	 0.0	 0.0	 0.0	 0.0	 0.0	 0.0	 0.0	 0.0	 62.0; % NG
	27837	 36.25	 0.0	 57.6	 -57.6	 1.0	 100.0	 1	 70	 2.5	 0.0	 0.0	 0.0	 0.0	 0.0	 0.0	 0.0	 0.0	 0.0	 0.0	 62.0; % PEL
	27837	 25.75	 0.0	 57.6	 -57.6	 1.0	 100.0	 1	 49	 2.5	 0.0	 0.0	 0.0	 0.0	 0.0	 0.0	 0.0	 0.0	 0.0	 0.0	 62.0; % NG
	27837	 54.25	 0.0	 57.6	 -57.6	 1.0	 100.0	 1	 106	 2.5	 0.0	 0.0	 0.0	 0.0	 0.0	 0.0	 0.0	 0.0	 0.0	 0.0	 62.0; % NG
	27837	 43.25	 0.0	 57.6	 -57.6	 1.0	 100.0	 1	 84	 2.5	 0.0	 0.0	 0.0	 0.0	 0.0	 0.0	 0.0	 0.0	 0.0	 0.0	 62.0; % NG
	27837	 29.25	 0.0	 57.6	 -57.6	 1.0	 100.0	 1	 56	 2.5	 0.0	 0.0	 0.0	 0.0	 0.0	 0.0	 0.0	 0.0	 0.0	 0.0	 62.0; % NG
	27838	 275.25	 10.7	 223.4	 -202.0	 1.0	 100.0	 1	 403	 147.5	 0.0	 0.0	 0.0	 0.0	 0.0	 0.0	 0.0	 0.0	 0.0	 0.0	 436.1; % NG
	27838	 118.1725	 5.5	 116.6	 -105.6	 1.0	 100.0	 1	 194	 42.345	 0.0	 0.0	 0.0	 0.0	 0.0	 0.0	 0.0	 0.0	 0.0	 0.0	 188.2; % NG
	27838	 202.5575	 0.0	 189.0	 -189.0	 1.0	 100.0	 1	 377	 28.115	 0.0	 0.0	 0.0	 0.0	 0.0	 0.0	 0.0	 0.0	 0.0	 0.0	 156.2; % COW
	27838	 260.25	 18.2	 223.4	 -187.0	 1.0	 100.0	 1	 373	 147.5	 0.0	 0.0	 0.0	 0.0	 0.0	 0.0	 0.0	 0.0	 0.0	 0.0	 436.1; % NG
	27838	 155.1725	 0.0	 134.0	 -134.0	 1.0	 100.0	 1	 268	 42.345	 0.0	 0.0	 0.0	 0.0	 0.0	 0.0	 0.0	 0.0	 0.0	 0.0	 188.2; % NG
	27838	 124.6725	 5.5	 116.6	 -105.6	 1.0	 100.0	 1	 207	 42.345	 0.0	 0.0	 0.0	 0.0	 0.0	 0.0	 0.0	 0.0	 0.0	 0.0	 188.2; % NG
	27838	 299.6725	 0.0	 279.0	 -279.0	 1.0	 100.0	 1	 557	 42.345	 0.0	 0.0	 0.0	 0.0	 0.0	 0.0	 0.0	 0.0	 0.0	 0.0	 188.2; % COW
	27838	 112.1725	 5.5	 116.6	 -105.6	 1.0	 100.0	 1	 182	 42.345	 0.0	 0.0	 0.0	 0.0	 0.0	 0.0	 0.0	 0.0	 0.0	 0.0	 188.2; % NG
	27838	 168.6725	 0.0	 148.0	 -148.0	 1.0	 100.0	 1	 295	 42.345	 0.0	 0.0	 0.0	 0.0	 0.0	 0.0	 0.0	 0.0	 0.0	 0.0	 188.2; % COW
	27838	 177.6725	 0.0	 157.0	 -157.0	 1.0	 100.0	 1	 313	 42.345	 0.0	 0.0	 0.0	 0.0	 0.0	 0.0	 0.0	 0.0	 0.0	 0.0	 188.2; % NG
	27838	 100.1725	 5.5	 116.6	 -105.6	 1.0	 100.0	 1	 158	 42.345	 0.0	 0.0	 0.0	 0.0	 0.0	 0.0	 0.0	 0.0	 0.0	 0.0	 188.2; % NG
	27839	 201.5	 77.25	 442.3	 -287.8	 1.0	 100.0	 1	 308	 95.0	 0.0	 0.0	 0.0	 0.0	 0.0	 0.0	 0.0	 0.0	 0.0	 0.0	 863.3; % COW
	27839	 215.5	 77.25	 442.3	 -287.8	 1.0	 100.0	 1	 336	 95.0	 0.0	 0.0	 0.0	 0.0	 0.0	 0.0	 0.0	 0.0	 0.0	 0.0	 863.3; % COW
	27839	 269.0	 50.2	 292.4	 -192.0	 1.0	 100.0	 1	 383	 155.0	 0.0	 0.0	 0.0	 0.0	 0.0	 0.0	 0.0	 0.0	 0.0	 0.0	 471.8; % NG
	27839	 96.6725	 -7.7	 116.6	 -132.0	 1.0	 100.0	 1	 151	 42.345	 0.0	 0.0	 0.0	 0.0	 0.0	 0.0	 0.0	 0.0	 0.0	 0.0	 188.2; % NG
	27839	 94.1725	 -7.7	 116.6	 -132.0	 1.0	 100.0	 1	 146	 42.345	 0.0	 0.0	 0.0	 0.0	 0.0	 0.0	 0.0	 0.0	 0.0	 0.0	 188.2; % NG
	27839	 98.6725	 -7.7	 116.6	 -132.0	 1.0	 100.0	 1	 155	 42.345	 0.0	 0.0	 0.0	 0.0	 0.0	 0.0	 0.0	 0.0	 0.0	 0.0	 188.2; % NG
	27839	 95.6725	 -7.7	 116.6	 -132.0	 1.0	 100.0	 1	 149	 42.345	 0.0	 0.0	 0.0	 0.0	 0.0	 0.0	 0.0	 0.0	 0.0	 0.0	 188.2; % NG
	27840	 548.0	 0.0	 501.0	 -501.0	 1.0	 100.0	 1	 1001	 95.0	 0.0	 0.0	 0.0	 0.0	 0.0	 0.0	 0.0	 0.0	 0.0	 0.0	 934.5; % NUC
	27840	 220.75	 0.0	 185.0	 -185.0	 1.0	 100.0	 1	 370	 71.5	 0.0	 0.0	 0.0	 0.0	 0.0	 0.0	 0.0	 0.0	 0.0	 0.0	 204.0; % COW
	27840	 141.25	 23.5	 153.0	 -106.0	 1.0	 100.0	 1	 211	 71.5	 0.0	 0.0	 0.0	 0.0	 0.0	 0.0	 0.0	 0.0	 0.0	 0.0	 204.0; % NG
	27840	 125.75	 31.5	 153.0	 -90.0	 1.0	 100.0	 1	 180	 71.5	 0.0	 0.0	 0.0	 0.0	 0.0	 0.0	 0.0	 0.0	 0.0	 0.0	 204.0; % NG
	27840	 327.25	 0.0	 292.0	 -292.0	 1.0	 100.0	 1	 583	 71.5	 0.0	 0.0	 0.0	 0.0	 0.0	 0.0	 0.0	 0.0	 0.0	 0.0	 204.0; % COW
	27840	 594.5	 0.0	 547.0	 -547.0	 1.0	 100.0	 1	 1094	 95.0	 0.0	 0.0	 0.0	 0.0	 0.0	 0.0	 0.0	 0.0	 0.0	 0.0	 934.5; % NUC
	27840	 286.0	 43.15	 292.3	 -206.0	 1.0	 100.0	 1	 412	 160.0	 0.0	 0.0	 0.0	 0.0	 0.0	 0.0	 0.0	 0.0	 0.0	 0.0	 471.7; % PEL
	27840	 134.6725	 1.3	 116.6	 -114.0	 1.0	 100.0	 1	 227	 42.345	 0.0	 0.0	 0.0	 0.0	 0.0	 0.0	 0.0	 0.0	 0.0	 0.0	 188.2; % NG
	27840	 134.6725	 1.3	 116.6	 -114.0	 1.0	 100.0	 1	 227	 42.345	 0.0	 0.0	 0.0	 0.0	 0.0	 0.0	 0.0	 0.0	 0.0	 0.0	 188.2; % NG
	27840	 201.1725	 0.0	 180.0	 -180.0	 1.0	 100.0	 1	 360	 42.345	 0.0	 0.0	 0.0	 0.0	 0.0	 0.0	 0.0	 0.0	 0.0	 0.0	 188.2; % NG
	27840	 102.1725	 17.8	 116.6	 -81.0	 1.0	 100.0	 1	 162	 42.345	 0.0	 0.0	 0.0	 0.0	 0.0	 0.0	 0.0	 0.0	 0.0	 0.0	 188.2; % NG
	27840	 135.75	 26.5	 153.0	 -100.0	 1.0	 100.0	 1	 200	 71.5	 0.0	 0.0	 0.0	 0.0	 0.0	 0.0	 0.0	 0.0	 0.0	 0.0	 204.0; % NG
	27840	 189.25	 0.0	 154.0	 -154.0	 1.0	 100.0	 1	 307	 71.5	 0.0	 0.0	 0.0	 0.0	 0.0	 0.0	 0.0	 0.0	 0.0	 0.0	 204.0; % NG
	27841	 490.5	 0.0	 385.0	 -385.0	 1.0	 100.0	 1	 769	 212.0	 0.0	 0.0	 0.0	 0.0	 0.0	 0.0	 0.0	 0.0	 0.0	 0.0	 0.0; % COW
	27841	 398.5	 65.4	 424.8	 -294.0	 1.0	 100.0	 1	 587	 210.0	 0.0	 0.0	 0.0	 0.0	 0.0	 0.0	 0.0	 0.0	 0.0	 0.0	 0.0; % COW
	27841	 439.0	 0.0	 362.0	 -362.0	 1.0	 100.0	 1	 723	 155.0	 0.0	 0.0	 0.0	 0.0	 0.0	 0.0	 0.0	 0.0	 0.0	 0.0	 472.0; % NG
	27841	 170.0	 50.55	 249.1	 -148.0	 1.0	 100.0	 1	 295	 45.0	 0.0	 0.0	 0.0	 0.0	 0.0	 0.0	 0.0	 0.0	 0.0	 0.0	 402.0; % NG
	27841	 141.0	 57.55	 249.1	 -134.0	 1.0	 100.0	 1	 237	 45.0	 0.0	 0.0	 0.0	 0.0	 0.0	 0.0	 0.0	 0.0	 0.0	 0.0	 402.0; % NG
	27841	 128.15	 4.75	 116.5	 -107.0	 1.0	 100.0	 1	 214	 42.3	 0.0	 0.0	 0.0	 0.0	 0.0	 0.0	 0.0	 0.0	 0.0	 0.0	 188.0; % NG
	27841	 370.15	 0.0	 349.0	 -349.0	 1.0	 100.0	 1	 698	 42.3	 0.0	 0.0	 0.0	 0.0	 0.0	 0.0	 0.0	 0.0	 0.0	 0.0	 188.0; % NG
	27841	 134.65	 1.25	 116.5	 -114.0	 1.0	 100.0	 1	 227	 42.3	 0.0	 0.0	 0.0	 0.0	 0.0	 0.0	 0.0	 0.0	 0.0	 0.0	 188.0; % NG
	27841	 196.15	 0.0	 175.0	 -175.0	 1.0	 100.0	 1	 350	 42.3	 0.0	 0.0	 0.0	 0.0	 0.0	 0.0	 0.0	 0.0	 0.0	 0.0	 188.0; % NG
	27842	 27.25	 0.0	 75.6	 -75.6	 1.0	 100.0	 1	 52	 2.5	 0.0	 0.0	 0.0	 0.0	 0.0	 0.0	 0.0	 0.0	 0.0	 0.0	 34.2; % COW
	27842	 44.75	 0.0	 75.6	 -75.6	 1.0	 100.0	 1	 87	 2.5	 0.0	 0.0	 0.0	 0.0	 0.0	 0.0	 0.0	 0.0	 0.0	 0.0	 34.2; % NG
	27842	 23.25	 0.0	 75.6	 -75.6	 1.0	 100.0	 1	 44	 2.5	 0.0	 0.0	 0.0	 0.0	 0.0	 0.0	 0.0	 0.0	 0.0	 0.0	 34.2; % PEL
	27842	 40.25	 0.0	 75.6	 -75.6	 1.0	 100.0	 1	 78	 2.5	 0.0	 0.0	 0.0	 0.0	 0.0	 0.0	 0.0	 0.0	 0.0	 0.0	 34.2; % NG
	27842	 93.25	 0.0	 92.0	 -92.0	 1.0	 100.0	 1	 184	 2.5	 0.0	 0.0	 0.0	 0.0	 0.0	 0.0	 0.0	 0.0	 0.0	 0.0	 34.2; % PEL
	27842	 21.75	 0.0	 75.6	 -75.6	 1.0	 100.0	 1	 41	 2.5	 0.0	 0.0	 0.0	 0.0	 0.0	 0.0	 0.0	 0.0	 0.0	 0.0	 34.2; % PEL
	27842	 52.25	 0.0	 75.6	 -75.6	 1.0	 100.0	 1	 102	 2.5	 0.0	 0.0	 0.0	 0.0	 0.0	 0.0	 0.0	 0.0	 0.0	 0.0	 34.2; % NG
	27842	 91.25	 0.0	 90.0	 -90.0	 1.0	 100.0	 1	 180	 2.5	 0.0	 0.0	 0.0	 0.0	 0.0	 0.0	 0.0	 0.0	 0.0	 0.0	 34.2; % NG
	27842	 26.75	 0.0	 75.6	 -75.6	 1.0	 100.0	 1	 51	 2.5	 0.0	 0.0	 0.0	 0.0	 0.0	 0.0	 0.0	 0.0	 0.0	 0.0	 34.2; % PEL
	27842	 40.75	 0.0	 75.6	 -75.6	 1.0	 100.0	 1	 79	 2.5	 0.0	 0.0	 0.0	 0.0	 0.0	 0.0	 0.0	 0.0	 0.0	 0.0	 34.2; % PEL
	27842	 39.75	 0.0	 75.6	 -75.6	 1.0	 100.0	 1	 77	 2.5	 0.0	 0.0	 0.0	 0.0	 0.0	 0.0	 0.0	 0.0	 0.0	 0.0	 34.2; % PEL
	27842	 41.75	 0.0	 75.6	 -75.6	 1.0	 100.0	 1	 81	 2.5	 0.0	 0.0	 0.0	 0.0	 0.0	 0.0	 0.0	 0.0	 0.0	 0.0	 34.2; % NG
	27842	 28.25	 0.0	 75.6	 -75.6	 1.0	 100.0	 1	 54	 2.5	 0.0	 0.0	 0.0	 0.0	 0.0	 0.0	 0.0	 0.0	 0.0	 0.0	 34.2; % PEL
	27842	 45.75	 0.0	 75.6	 -75.6	 1.0	 100.0	 1	 89	 2.5	 0.0	 0.0	 0.0	 0.0	 0.0	 0.0	 0.0	 0.0	 0.0	 0.0	 34.2; % NG
	27842	 43.25	 0.0	 75.6	 -75.6	 1.0	 100.0	 1	 84	 2.5	 0.0	 0.0	 0.0	 0.0	 0.0	 0.0	 0.0	 0.0	 0.0	 0.0	 34.2; % PEL
	27842	 22.75	 0.0	 75.6	 -75.6	 1.0	 100.0	 1	 43	 2.5	 0.0	 0.0	 0.0	 0.0	 0.0	 0.0	 0.0	 0.0	 0.0	 0.0	 34.2; % PEL
	27842	 49.25	 0.0	 75.6	 -75.6	 1.0	 100.0	 1	 96	 2.5	 0.0	 0.0	 0.0	 0.0	 0.0	 0.0	 0.0	 0.0	 0.0	 0.0	 34.2; % PEL
	27842	 134.58	 0.0	 123.0	 -123.0	 1.0	 100.0	 1	 245	 24.16	 0.0	 0.0	 0.0	 0.0	 0.0	 0.0	 0.0	 0.0	 0.0	 0.0	 151.2; % COW
	27842	 91.08	 7.35	 93.7	 -79.0	 1.0	 100.0	 1	 158	 24.16	 0.0	 0.0	 0.0	 0.0	 0.0	 0.0	 0.0	 0.0	 0.0	 0.0	 151.2; % COW
	27842	 189.25	 0.0	 151.0	 -151.0	 1.0	 100.0	 1	 301	 77.5	 0.0	 0.0	 0.0	 0.0	 0.0	 0.0	 0.0	 0.0	 0.0	 0.0	 185.0; % NG
	27842	 235.75	 0.0	 197.0	 -197.0	 1.0	 100.0	 1	 394	 77.5	 0.0	 0.0	 0.0	 0.0	 0.0	 0.0	 0.0	 0.0	 0.0	 0.0	 185.0; % NG
	27842	 157.75	 9.9	 138.8	 -119.0	 1.0	 100.0	 1	 238	 77.5	 0.0	 0.0	 0.0	 0.0	 0.0	 0.0	 0.0	 0.0	 0.0	 0.0	 185.0; % NG
	27842	 23.25	 0.0	 75.6	 -75.6	 1.0	 100.0	 1	 44	 2.5	 0.0	 0.0	 0.0	 0.0	 0.0	 0.0	 0.0	 0.0	 0.0	 0.0	 34.2; % NG
	27842	 177.25	 0.0	 139.0	 -139.0	 1.0	 100.0	 1	 277	 77.5	 0.0	 0.0	 0.0	 0.0	 0.0	 0.0	 0.0	 0.0	 0.0	 0.0	 185.0; % NG
	27842	 45.25	 0.0	 75.6	 -75.6	 1.0	 100.0	 1	 88	 2.5	 0.0	 0.0	 0.0	 0.0	 0.0	 0.0	 0.0	 0.0	 0.0	 0.0	 34.2; % NG
	27842	 33.25	 0.0	 75.6	 -75.6	 1.0	 100.0	 1	 64	 2.5	 0.0	 0.0	 0.0	 0.0	 0.0	 0.0	 0.0	 0.0	 0.0	 0.0	 34.2; % PEL
	27842	 21.75	 0.0	 75.6	 -75.6	 1.0	 100.0	 1	 41	 2.5	 0.0	 0.0	 0.0	 0.0	 0.0	 0.0	 0.0	 0.0	 0.0	 0.0	 34.2; % PEL
	27842	 31.25	 0.0	 75.6	 -75.6	 1.0	 100.0	 1	 60	 2.5	 0.0	 0.0	 0.0	 0.0	 0.0	 0.0	 0.0	 0.0	 0.0	 0.0	 34.2; % COW
	27842	 64.75	 0.0	 75.6	 -75.6	 1.0	 100.0	 1	 127	 2.5	 0.0	 0.0	 0.0	 0.0	 0.0	 0.0	 0.0	 0.0	 0.0	 0.0	 34.2; % NG
...
];

%% generator cost data
%	2	startup	shutdown	n	c(n-1)	...	c0
mpc.gencost = [
	2	 0.0	 0.0	 3	   0.000000	   6.814178	   0.000000; % NG
	2	 0.0	 0.0	 3	   0.000000	  26.746204	   0.000000; % COW
	2	 0.0	 0.0	 3	   0.000000	  24.594915	   0.000000; % COW
	2	 0.0	 0.0	 3	   0.000000	  44.725544	   0.000000; % COW
	2	 0.0	 0.0	 3	   0.000000	  20.518258	   0.000000; % COW
	2	 0.0	 0.0	 3	   0.000000	  24.670626	   0.000000; % COW
	2	 0.0	 0.0	 3	   0.000000	  29.618977	   0.000000; % NG
	2	 0.0	 0.0	 3	   0.000000	  29.987382	   0.000000; % COW
	2	 0.0	 0.0	 3	   0.000000	  34.768684	   0.000000; % NG
	2	 0.0	 0.0	 3	   0.000000	  51.269222	   0.000000; % NG
	2	 0.0	 0.0	 3	   0.000000	  37.251628	   0.000000; % COW
	2	 0.0	 0.0	 3	   0.000000	  37.756886	   0.000000; % NG
	2	 0.0	 0.0	 3	   0.000000	  23.098355	   0.000000; % NG
	2	 0.0	 0.0	 3	   0.000000	  42.886610	   0.000000; % COW
	2	 0.0	 0.0	 3	   0.000000	  31.542684	   0.000000; % COW
	2	 0.0	 0.0	 3	   0.000000	  26.213922	   0.000000; % NG
	2	 0.0	 0.0	 3	   0.000000	  21.302441	   0.000000; % COW
	2	 0.0	 0.0	 3	   0.000000	  32.748669	   0.000000; % COW
	2	 0.0	 0.0	 3	   0.000000	  10.765826	   0.000000; % COW
	2	 0.0	 0.0	 3	   0.000000	  13.843645	   0.000000; % NG
	2	 0.0	 0.0	 3	   0.000000	  46.121807	   0.000000; % NG
	2	 0.0	 0.0	 3	   0.000000	  46.222796	   0.000000; % NG
	2	 0.0	 0.0	 3	   0.000000	  33.295524	   0.000000; % NG
	2	 0.0	 0.0	 3	   0.000000	  52.454870	   0.000000; % COW
	2	 0.0	 0.0	 3	   0.000000	  27.171972	   0.000000; % NG
	2	 0.0	 0.0	 3	   0.000000	 108.594254	   0.000000; % NG
	2	 0.0	 0.0	 3	   0.000000	  34.479903	   0.000000; % NG
	2	 0.0	 0.0	 3	   0.000000	  34.895159	   0.000000; % NG
	2	 0.0	 0.0	 3	   0.000000	  34.219102	   0.000000; % COW
	2	 0.0	 0.0	 3	   0.000000	  37.580029	   0.000000; % NG
	2	 0.0	 0.0	 3	   0.000000	  40.216629	   0.000000; % NG
	2	 0.0	 0.0	 3	   0.000000	  38.245538	   0.000000; % NG
	2	 0.0	 0.0	 3	   0.000000	  25.589072	   0.000000; % NG
	2	 0.0	 0.0	 3	   0.000000	  47.656912	   0.000000; % NG
	2	 0.0	 0.0	 3	   0.000000	  35.979606	   0.000000; % NG
	2	 0.0	 0.0	 3	   0.000000	   7.246643	   0.000000; % NG
	2	 0.0	 0.0	 3	   0.000000	  13.714801	   0.000000; % NG
	2	 0.0	 0.0	 3	   0.000000	  48.701649	   0.000000; % COW
	2	 0.0	 0.0	 3	   0.000000	  27.514404	   0.000000; % COW
	2	 0.0	 0.0	 3	   0.000000	  46.853594	   0.000000; % NG
	2	 0.0	 0.0	 3	   0.000000	  50.567371	   0.000000; % NG
	2	 0.0	 0.0	 3	   0.000000	  20.579989	   0.000000; % NG
	2	 0.0	 0.0	 3	   0.000000	  39.081251	   0.000000; % NG
	2	 0.0	 0.0	 3	   0.000000	  45.122392	   0.000000; % NG
	2	 0.0	 0.0	 3	   0.000000	  14.978882	   0.000000; % COW
	2	 0.0	 0.0	 3	   0.000000	  22.330512	   0.000000; % COW
	2	 0.0	 0.0	 3	   0.000000	  32.010073	   0.000000; % COW
	2	 0.0	 0.0	 3	   0.000000	  22.130246	   0.000000; % NG
	2	 0.0	 0.0	 3	   0.000000	 103.703155	   0.000000; % NG
	2	 0.0	 0.0	 3	   0.000000	  23.381490	   0.000000; % PEL
	2	 0.0	 0.0	 3	   0.000000	  34.543956	   0.000000; % NG
	2	 0.0	 0.0	 3	   0.000000	  36.929607	   0.000000; % NG
	2	 0.0	 0.0	 3	   0.000000	  21.572741	   0.000000; % NG
	2	 0.0	 0.0	 3	   0.000000	  41.528958	   0.000000; % NG
	2	 0.0	 0.0	 3	   0.000000	  43.681460	   0.000000; % NG
	2	 0.0	 0.0	 3	   0.000000	  24.909197	   0.000000; % NG
	2	 0.0	 0.0	 3	   0.000000	  95.582112	   0.000000; % NG
	2	 0.0	 0.0	 3	   0.000000	  50.032076	   0.000000; % NG
	2	 0.0	 0.0	 3	   0.000000	 113.171236	   0.000000; % NG
	2	 0.0	 0.0	 3	   0.000000	  45.939519	   0.000000; % NG
	2	 0.0	 0.0	 3	   0.000000	  16.636312	   0.000000; % NG
	2	 0.0	 0.0	 3	   0.000000	  50.157744	   0.000000; % NG
	2	 0.0	 0.0	 3	   0.000000	  26.693804	   0.000000; % COW
	2	 0.0	 0.0	 3	   0.000000	  25.617473	   0.000000; % NG
	2	 0.0	 0.0	 3	   0.000000	  32.002160	   0.000000; % NG
	2	 0.0	 0.0	 3	   0.000000	  23.565410	   0.000000; % NG
	2	 0.0	 0.0	 3	   0.000000	  46.944787	   0.000000; % NG
	2	 0.0	 0.0	 3	   0.000000	  22.564176	   0.000000; % NG
	2	 0.0	 0.0	 3	   0.000000	  21.053498	   0.000000; % NG
	2	 0.0	 0.0	 3	   0.000000	  43.121103	   0.000000; % NG
	2	 0.0	 0.0	 3	   0.000000	  42.082359	   0.000000; % NG
	2	 0.0	 0.0	 3	   0.000000	  15.970501	   0.000000; % NG
	2	 0.0	 0.0	 3	   0.000000	  44.143046	   0.000000; % NG
	2	 0.0	 0.0	 3	   0.000000	  50.682619	   0.000000; % NG
	2	 0.0	 0.0	 3	   0.000000	  31.048324	   0.000000; % PEL
	2	 0.0	 0.0	 3	   0.000000	  49.718592	   0.000000; % NG
	2	 0.0	 0.0	 3	   0.000000	 121.451704	   0.000000; % NG
	2	 0.0	 0.0	 3	   0.000000	  95.397204	   0.000000; % PEL
	2	 0.0	 0.0	 3	   0.000000	  16.333397	   0.000000; % NG
	2	 0.0	 0.0	 3	   0.000000	  24.164534	   0.000000; % NG
	2	 0.0	 0.0	 3	   0.000000	  17.808022	   0.000000; % NG
	2	 0.0	 0.0	 3	   0.000000	  31.589770	   0.000000; % NG
	2	 0.0	 0.0	 3	   0.000000	  10.503650	   0.000000; % NG
	2	 0.0	 0.0	 3	   0.000000	  33.827583	   0.000000; % COW
	2	 0.0	 0.0	 3	   0.000000	  26.738073	   0.000000; % NG
	2	 0.0	 0.0	 3	   0.000000	  33.949798	   0.000000; % COW
	2	 0.0	 0.0	 3	   0.000000	  47.119455	   0.000000; % COW
	2	 0.0	 0.0	 3	   0.000000	  29.357781	   0.000000; % NG
	2	 0.0	 0.0	 3	   0.000000	  35.158685	   0.000000; % NG
	2	 0.0	 0.0	 3	   0.000000	  48.248104	   0.000000; % NG
	2	 0.0	 0.0	 3	   0.000000	  47.836063	   0.000000; % COW
	2	 0.0	 0.0	 3	   0.000000	  34.731951	   0.000000; % NG
	2	 0.0	 0.0	 3	   0.000000	  24.530906	   0.000000; % NG
	2	 0.0	 0.0	 3	   0.000000	  40.534354	   0.000000; % COW
	2	 0.0	 0.0	 3	   0.000000	  24.824855	   0.000000; % NG
	2	 0.0	 0.0	 3	   0.000000	  51.484262	   0.000000; % NG
	2	 0.0	 0.0	 3	   0.000000	 111.816799	   0.000000; % NG
	2	 0.0	 0.0	 3	   0.000000	  47.726404	   0.000000; % COW
	2	 0.0	 0.0	 3	   0.000000	  32.649365	   0.000000; % NG
	2	 0.0	 0.0	 3	   0.000000	  43.689995	   0.000000; % NG
	2	 0.0	 0.0	 3	   0.000000	  32.124779	   0.000000; % NG
	2	 0.0	 0.0	 3	   0.000000	 112.150182	   0.000000; % PEL
	2	 0.0	 0.0	 3	   0.000000	 114.157329	   0.000000; % PEL
	2	 0.0	 0.0	 3	   0.000000	  30.027455	   0.000000; % PEL
	2	 0.0	 0.0	 3	   0.000000	  39.471671	   0.000000; % COW
	2	 0.0	 0.0	 3	   0.000000	  11.172715	   0.000000; % NG
	2	 0.0	 0.0	 3	   0.000000	  22.852459	   0.000000; % NG
	2	 0.0	 0.0	 3	   0.000000	  36.557844	   0.000000; % NG
	2	 0.0	 0.0	 3	   0.000000	  48.606547	   0.000000; % NG
	2	 0.0	 0.0	 3	   0.000000	  30.695663	   0.000000; % NG
	2	 0.0	 0.0	 3	   0.000000	  20.645632	   0.000000; % NG
	2	 0.0	 0.0	 3	   0.000000	  30.729861	   0.000000; % NG
	2	 0.0	 0.0	 3	   0.000000	  43.422072	   0.000000; % NG
	2	 0.0	 0.0	 3	   0.000000	  20.643519	   0.000000; % NG
	2	 0.0	 0.0	 3	   0.000000	  29.063131	   0.000000; % NG
	2	 0.0	 0.0	 3	   0.000000	  22.739710	   0.000000; % NG
	2	 0.0	 0.0	 3	   0.000000	  10.023987	   0.000000; % NG
	2	 0.0	 0.0	 3	   0.000000	  31.071000	   0.000000; % NG
	2	 0.0	 0.0	 3	   0.000000	  50.783427	   0.000000; % NG
	2	 0.0	 0.0	 3	   0.000000	  46.865887	   0.000000; % NG
	2	 0.0	 0.0	 3	   0.000000	  42.308665	   0.000000; % NG
	2	 0.0	 0.0	 3	   0.000000	  40.777905	   0.000000; % NG
	2	 0.0	 0.0	 3	   0.000000	  11.293081	   0.000000; % NG
	2	 0.0	 0.0	 3	   0.000000	  27.724689	   0.000000; % NG
	2	 0.0	 0.0	 3	   0.000000	  38.705780	   0.000000; % NG
	2	 0.0	 0.0	 3	   0.000000	  48.862662	   0.000000; % NG
	2	 0.0	 0.0	 3	   0.000000	  48.076819	   0.000000; % PEL
	2	 0.0	 0.0	 3	   0.000000	  40.723414	   0.000000; % NG
	2	 0.0	 0.0	 3	   0.000000	  38.820926	   0.000000; % NG
	2	 0.0	 0.0	 3	   0.000000	  43.439614	   0.000000; % NG
	2	 0.0	 0.0	 3	   0.000000	  53.995983	   0.000000; % NG
	2	 0.0	 0.0	 3	   0.000000	  27.423133	   0.000000; % NG
	2	 0.0	 0.0	 3	   0.000000	  43.999202	   0.000000; % NG
	2	 0.0	 0.0	 3	   0.000000	  37.265750	   0.000000; % COW
	2	 0.0	 0.0	 3	   0.000000	  31.833016	   0.000000; % NG
	2	 0.0	 0.0	 3	   0.000000	  32.264970	   0.000000; % NG
	2	 0.0	 0.0	 3	   0.000000	  25.413004	   0.000000; % NG
	2	 0.0	 0.0	 3	   0.000000	  32.432750	   0.000000; % COW
	2	 0.0	 0.0	 3	   0.000000	  34.716257	   0.000000; % NG
	2	 0.0	 0.0	 3	   0.000000	  29.398002	   0.000000; % COW
	2	 0.0	 0.0	 3	   0.000000	  30.475415	   0.000000; % NG
	2	 0.0	 0.0	 3	   0.000000	  30.387431	   0.000000; % NG
	2	 0.0	 0.0	 3	   0.000000	  34.395513	   0.000000; % COW
	2	 0.0	 0.0	 3	   0.000000	  19.314371	   0.000000; % COW
	2	 0.0	 0.0	 3	   0.000000	  38.451738	   0.000000; % NG
	2	 0.0	 0.0	 3	   0.000000	  50.734367	   0.000000; % NG
	2	 0.0	 0.0	 3	   0.000000	  18.190289	   0.000000; % NG
	2	 0.0	 0.0	 3	   0.000000	  13.622823	   0.000000; % NG
	2	 0.0	 0.0	 3	   0.000000	  15.772545	   0.000000; % NG
	2	 0.0	 0.0	 3	   0.000000	   6.401537	   0.000000; % NUC
	2	 0.0	 0.0	 3	   0.000000	  11.716552	   0.000000; % COW
	2	 0.0	 0.0	 3	   0.000000	  47.119731	   0.000000; % NG
	2	 0.0	 0.0	 3	   0.000000	  31.149176	   0.000000; % NG
	2	 0.0	 0.0	 3	   0.000000	  52.252074	   0.000000; % COW
	2	 0.0	 0.0	 3	   0.000000	  42.289232	   0.000000; % NUC
	2	 0.0	 0.0	 3	   0.000000	  19.827384	   0.000000; % PEL
	2	 0.0	 0.0	 3	   0.000000	  30.994421	   0.000000; % NG
	2	 0.0	 0.0	 3	   0.000000	  23.087627	   0.000000; % NG
	2	 0.0	 0.0	 3	   0.000000	  30.410109	   0.000000; % NG
	2	 0.0	 0.0	 3	   0.000000	  42.061393	   0.000000; % NG
	2	 0.0	 0.0	 3	   0.000000	  13.528205	   0.000000; % NG
	2	 0.0	 0.0	 3	   0.000000	  22.318639	   0.000000; % NG
	2	 0.0	 0.0	 3	   0.000000	   7.286122	   0.000000; % COW
	2	 0.0	 0.0	 3	   0.000000	  16.163955	   0.000000; % COW
	2	 0.0	 0.0	 3	   0.000000	  24.863274	   0.000000; % NG
	2	 0.0	 0.0	 3	   0.000000	  39.593449	   0.000000; % NG
	2	 0.0	 0.0	 3	   0.000000	  23.146839	   0.000000; % NG
	2	 0.0	 0.0	 3	   0.000000	  28.596368	   0.000000; % NG
	2	 0.0	 0.0	 3	   0.000000	  39.676019	   0.000000; % NG
	2	 0.0	 0.0	 3	   0.000000	  18.557881	   0.000000; % NG
	2	 0.0	 0.0	 3	   0.000000	  40.790701	   0.000000; % NG
	2	 0.0	 0.0	 3	   0.000000	  32.541366	   0.000000; % COW
	2	 0.0	 0.0	 3	   0.000000	  37.005568	   0.000000; % NG
	2	 0.0	 0.0	 3	   0.000000	  26.573790	   0.000000; % PEL
	2	 0.0	 0.0	 3	   0.000000	 122.471408	   0.000000; % NG
	2	 0.0	 0.0	 3	   0.000000	  87.298562	   0.000000; % PEL
	2	 0.0	 0.0	 3	   0.000000	  45.713561	   0.000000; % PEL
	2	 0.0	 0.0	 3	   0.000000	  19.897311	   0.000000; % NG
	2	 0.0	 0.0	 3	   0.000000	  34.675388	   0.000000; % NG
	2	 0.0	 0.0	 3	   0.000000	 117.149805	   0.000000; % PEL
	2	 0.0	 0.0	 3	   0.000000	  45.391092	   0.000000; % PEL
	2	 0.0	 0.0	 3	   0.000000	  28.198266	   0.000000; % PEL
	2	 0.0	 0.0	 3	   0.000000	  34.726503	   0.000000; % NG
	2	 0.0	 0.0	 3	   0.000000	 101.404288	   0.000000; % PEL
	2	 0.0	 0.0	 3	   0.000000	  38.195408	   0.000000; % NG
	2	 0.0	 0.0	 3	   0.000000	  49.003210	   0.000000; % PEL
	2	 0.0	 0.0	 3	   0.000000	  25.349767	   0.000000; % PEL
	2	 0.0	 0.0	 3	   0.000000	  38.952681	   0.000000; % PEL
	2	 0.0	 0.0	 3	   0.000000	  31.996407	   0.000000; % COW
	2	 0.0	 0.0	 3	   0.000000	  32.766012	   0.000000; % COW
	2	 0.0	 0.0	 3	   0.000000	  19.478966	   0.000000; % NG
	2	 0.0	 0.0	 3	   0.000000	  37.708804	   0.000000; % NG
	2	 0.0	 0.0	 3	   0.000000	  31.995682	   0.000000; % NG
	2	 0.0	 0.0	 3	   0.000000	  36.913662	   0.000000; % NG
	2	 0.0	 0.0	 3	   0.000000	  44.302434	   0.000000; % NG
	2	 0.0	 0.0	 3	   0.000000	  20.090994	   0.000000; % NG
	2	 0.0	 0.0	 3	   0.000000	  43.371946	   0.000000; % PEL
	2	 0.0	 0.0	 3	   0.000000	  93.314925	   0.000000; % PEL
	2	 0.0	 0.0	 3	   0.000000	  51.443270	   0.000000; % COW
	2	 0.0	 0.0	 3	   0.000000	 118.949040	   0.000000; % NG
...
];

%% branch data
%	fbus	tbus	r	x	b	rateA	rateB	rateC	ratio	angle	status	angmin	angmax
mpc.branch = [
	27810	 29514	 0.000469	 0.005848	 0.40091	 1725.0	 1811.2	 1897.5	 0.0	 0.0	 1	 -30.0	 30.0;
	27810	 30911	 0.0007	 0.010046	 0.69505	 1893.0	 1987.6	 2082.3	 0.0	 0.0	 1	 -30.0	 30.0;
	27810	 84641	 0.00013	 0.010428	 0.0	 1400.0	 1400.0	 1400.0	 1.0	 0.0	 1	 -30.0	 30.0;
	27810	 84641	 0.00013	 0.010428	 0.0	 1400.0	 1400.0	 1400.0	 1.0	 0.0	 1	 -30.0	 30.0;
	27811	 27855	 0.000454	 0.011852	 1.2644	 4112.0	 4317.6	 4523.2	 0.0	 0.0	 0	 -30.0	 30.0;
	27811	 28131	 0.000347	 0.008567	 0.63202	 2783.0	 2922.2	 3061.3	 0.0	 0.0	 1	 -30.0	 30.0;
	27811	 28681	 0.000238	 0.005865	 0.69888	 4112.0	 4317.6	 4523.2	 0.0	 0.0	 1	 -30.0	 30.0;
	27811	 30803	 0.00062	 0.016114	 1.476	 3531.0	 3707.6	 3884.1	 0.0	 0.0	 1	 -30.0	 30.0;
	27811	 84644	 0.000114	 0.009124	 0.0	 1600.0	 1600.0	 1600.0	 1.0	 0.0	 1	 -30.0	 30.0;
	27811	 84644	 0.000114	 0.009124	 0.0	 1600.0	 1600.0	 1600.0	 1.0	 0.0	 1	 -30.0	 30.0;
	27811	 84644	 0.000114	 0.009124	 0.0	 1600.0	 1600.0	 1600.0	 1.0	 0.0	 1	 -30.0	 30.0;
	84645	 27811	 0.000149	 0.01193	 0.0	 1450.0	 1450.0	 1450.0	 1.0	 0.0	 0	 -30.0	 30.0;
	84645	 27811	 0.000149	 0.01193	 0.0	 1450.0	 1450.0	 1450.0	 1.0	 0.0	 0	 -30.0	 30.0;
	27812	 28820	 1e-05	 0.000115	 0.0086	 1725.0	 1811.2	 1897.5	 0.0	 0.0	 1	 -30.0	 30.0;
	27812	 84646	 0.000159	 0.012695	 0.0	 1150.0	 1150.0	 1150.0	 1.0	 0.0	 1	 -30.0	 30.0;
	27812	 84646	 0.000159	 0.012695	 0.0	 1150.0	 1150.0	 1150.0	 1.0	 0.0	 1	 -30.0	 30.0;
	27813	 31215	 0.000568	 0.005738	 0.01302	 491.0	 515.5	 540.1	 0.0	 0.0	 1	 -30.0	 30.0;
	27813	 31215	 0.000568	 0.005738	 0.01302	 491.0	 515.5	 540.1	 0.0	 0.0	 1	 -30.0	 30.0;
	27813	 31522	 0.000245	 0.00284	 0.01009	 794.0	 833.7	 873.4	 0.0	 0.0	 1	 -30.0	 30.0;
	27813	 84647	 0.000208	 0.01557	 0.0	 700.0	 700.0	 700.0	 1.0	 0.0	 1	 -30.0	 30.0;
	27813	 84647	 0.000208	 0.01557	 0.0	 700.0	 700.0	 700.0	 1.0	 0.0	 1	 -30.0	 30.0;
	84648	 27813	 0.000596	 0.041746	 0.0	 400.0	 400.0	 400.0	 1.0	 0.0	 1	 -30.0	 30.0;
	84648	 27813	 0.000596	 0.041746	 0.0	 400.0	 400.0	 400.0	 1.0	 0.0	 1	 -30.0	 30.0;
	27814	 28178	 0.000794	 0.010276	 0.6569	 1725.0	 1811.2	 1897.5	 0.0	 0.0	 1	 -30.0	 30.0;
	27814	 30713	 0.000413	 0.005155	 0.35337	 1725.0	 1811.2	 1897.5	 0.0	 0.0	 1	 -30.0	 30.0;
	27814	 84649	 0.000174	 0.013904	 0.0	 1050.0	 1050.0	 1050.0	 1.0	 0.0	 1	 -30.0	 30.0;
	27814	 84649	 0.000174	 0.013904	 0.0	 1050.0	 1050.0	 1050.0	 1.0	 0.0	 1	 -30.0	 30.0;
	84650	 27814	 0.000333	 0.026613	 0.0	 650.0	 650.0	 650.0	 1.0	 0.0	 1	 -30.0	 30.0;
	84650	 27814	 0.000333	 0.026613	 0.0	 650.0	 650.0	 650.0	 1.0	 0.0	 1	 -30.0	 30.0;
	27815	 29434	 3.9e-05	 0.000503	 0.03289	 1725.0	 1811.2	 1897.5	 0.0	 0.0	 1	 -30.0	 30.0;
	27815	 29867	 0.000536	 0.006925	 0.44228	 1725.0	 1811.2	 1897.5	 0.0	 0.0	 1	 -30.0	 30.0;
	27815	 84651	 0.000216	 0.016221	 0.0	 900.0	 900.0	 900.0	 1.0	 0.0	 1	 -30.0	 30.0;
	27815	 84651	 0.000216	 0.016221	 0.0	 900.0	 900.0	 900.0	 1.0	 0.0	 1	 -30.0	 30.0;
	84652	 27815	 0.000419	 0.031452	 0.0	 550.0	 550.0	 550.0	 1.0	 0.0	 1	 -30.0	 30.0;
	84652	 27815	 0.000419	 0.031452	 0.0	 550.0	 550.0	 550.0	 1.0	 0.0	 1	 -30.0	 30.0;
	27816	 28788	 0.000452	 0.010934	 1.057	 3786.0	 3975.3	 4164.6	 0.0	 0.0	 1	 -30.0	 30.0;
	27816	 29338	 0.000568	 0.015765	 1.1868	 3031.0	 3182.6	 3334.1	 0.0	 0.0	 1	 -30.0	 30.0;
	27816	 84653	 0.000135	 0.010814	 0.0	 1350.0	 1350.0	 1350.0	 1.0	 0.0	 1	 -30.0	 30.0;
	27816	 84653	 0.000135	 0.010814	 0.0	 1350.0	 1350.0	 1350.0	 1.0	 0.0	 1	 -30.0	 30.0;
	27817	 28145	 0.000291	 0.004934	 0.01743	 1023.0	 1074.1	 1125.3	 0.0	 0.0	 1	 -30.0	 30.0;
	27817	 28148	 8e-05	 0.000854	 0.00174	 491.0	 515.5	 540.1	 0.0	 0.0	 1	 -30.0	 30.0;
	27817	 28148	 8e-05	 0.000854	 0.00174	 491.0	 515.5	 540.1	 0.0	 0.0	 1	 -30.0	 30.0;
	27817	 28151	 0.000151	 0.002265	 0.0053	 647.0	 679.3	 711.7	 0.0	 0.0	 1	 -30.0	 30.0;
	27817	 84655	 0.00107	 0.055656	 0.0	 300.0	 300.0	 300.0	 1.0	 0.0	 1	 -30.0	 30.0;
	27817	 84655	 0.00107	 0.055656	 0.0	 300.0	 300.0	 300.0	 1.0	 0.0	 1	 -30.0	 30.0;
...